<routes><vType accel="3.3" decel="4.7" id="Car0" length="6.6" maxSpeed="78" sigma="0.928829304891" /><vType accel="0.8" decel="3.5" id="Car1" length="13.8" maxSpeed="108" sigma="0.634884088488" /><vType accel="2.6" decel="5.7" id="Car2" length="7.2" maxSpeed="95" sigma="0.149728636194" /><vType accel="2.6" decel="4.9" id="Car3" length="20.2" maxSpeed="80" sigma="0.990659883548" /><vType accel="3.2" decel="6.1" id="Car4" length="9.0" maxSpeed="99" sigma="0.6234730075" /><vType accel="0.5" decel="5.6" id="Car5" length="13.5" maxSpeed="88" sigma="0.430657760197" /><vType accel="1.4" decel="6.2" id="Car6" length="5.1" maxSpeed="66" sigma="0.999902366172" /><vType accel="1.5" decel="6.6" id="Car7" length="18.8" maxSpeed="88" sigma="0.349451009586" /><vType accel="4.4" decel="4.9" id="Car8" length="19.6" maxSpeed="66" sigma="0.452883834814" /><vType accel="4.7" decel="6.5" id="Car9" length="13.0" maxSpeed="79" sigma="0.84502973038" /><vType accel="2.3" decel="2.0" id="Car10" length="6.1" maxSpeed="81" sigma="0.140700672762" /><vType accel="3.9" decel="2.7" id="Car11" length="12.6" maxSpeed="68" sigma="0.248764813753" /><vType accel="2.2" decel="4.7" id="Car12" length="12.8" maxSpeed="75" sigma="0.0473912654679" /><vType accel="0.7" decel="4.2" id="Car13" length="10.1" maxSpeed="99" sigma="0.4062976936" /><vType accel="3.2" decel="3.0" id="Car14" length="6.1" maxSpeed="76" sigma="0.520310900075" /><vType accel="3.4" decel="3.4" id="Car15" length="19.4" maxSpeed="103" sigma="0.000787816012121" /><vType accel="1.0" decel="4.5" id="Car16" length="10.2" maxSpeed="76" sigma="0.445948497786" /><vType accel="4.7" decel="2.8" id="Car17" length="9.3" maxSpeed="101" sigma="0.146129374372" /><vType accel="1.4" decel="3.8" id="Car18" length="12.6" maxSpeed="72" sigma="0.450190831328" /><vType accel="4.5" decel="8.0" id="Car19" length="16.5" maxSpeed="113" sigma="0.0745400058421" /><vType accel="4.5" decel="8.0" id="back_car" length="16.5" maxSpeed="113" sigma="0.0745400058421" /><route edges="1928298965_313441110 313441110_313440691 313440691_313441737 313441737_313254240 313254240_313139758 313139758_1928315581 1928315581_1928315592 1928315592_1928315579 1928315579_1928315589 1928315589_1928315553 1928315553_1928315555 1928315555_1928315558 1928315558_1928315573 1928315573_1928315552 1928315552_1928315586 1928315586_313139789 313139789_313254109 313254109_313139805 313139805_313254077 313254077_313139816 313139816_313441837 313441837_313139868 313139868_313139905 313139905_313139906 313139906_313139853 313139853_313139907 313139907_313139865 313139865_313441842 313441842_313139995 313139995_4817054296 4817054296_2245992570 2245992570_313139953 313139953_2381887355 2381887355_462844528 462844528_304705564 304705564_462850492 462850492_304705458 304705458_462849962 462849962_4326585010 4326585010_4326585009 4326585009_29936554 29936554_4326585008 4326585008_4142788490 4142788490_311901127 311901127_29960343 29960343_2245577417 2245577417_304705278 304705278_304705227 304705227_309975117 309975117_2815396513 2815396513_2245577418 2245577418_304705215 304705215_2815396505 2815396505_309975281 309975281_309975083 309975083_304704681 304704681_2245577415 2245577415_309975063 309975063_29960342 29960342_304704449 304704449_309972751 309972751_2245577416 2245577416_304704443 304704443_2938998243 2938998243_304704440 304704440_2080740191 2080740191_309972045 309972045_309972112 309972112_304704429 304704429_309971000 309971000_21643772 21643772_4000710669 4000710669_850722885 850722885_309970344 309970344_304701852 304701852_2080740194 2080740194_4802879112 4802879112_304701810 304701810_3071691488 3071691488_309969348 309969348_309969259 309969259_304701495 304701495_304701503 304701503_3224362684 3224362684_1487228141 1487228141_1487228084 1487228084_1487228003 1487228003_1487228036 1487228036_1487228148 1487228148_1487228031 1487228031_4169720288 4169720288_1487227988 1487227988_29936553 29936553_4169720259 4169720259_309978787 309978787_1522977019 1522977019_1522839079 1522839079_1522566268 1522566268_1522834359 1522834359_1522566317 1522566317_1522834449 1522834449_1522834345 1522834345_1522834377 1522834377_1522834355 1522834355_31477188 31477188_31477187 31477187_31477186 31477186_2940375840 2940375840_370477432 370477432_214122372 214122372_370477489 370477489_31477185 31477185_31477184 31477184_2940375839 2940375839_370477495 370477495_214122180 214122180_214092481 214092481_541122878 541122878_541122879 541122879_541122881 541122881_541122882 541122882_541122883 541122883_541122884 541122884_541122885 541122885_541122845 541122845_541122905 541122905_906234098 906234098_906234090 906234090_906234099 906234099_906234081 906234081_906234088 906234088_906234083 906234083_906234091 906234091_906234096 906234096_906234093 906234093_906234084 906234084_906234092 906234092_906234082 906234082_906234094 906234094_906234085 906234085_2384157684 2384157684_906234086 906234086_906234097 906234097_906234089 906234089_906234087 906234087_1192149947 1192149947_906234095 906234095_3067843936 3067843936_827113739 827113739_128874949 128874949_4698523258 4698523258_128874985 128874985_305913666 305913666_151451933 151451933_305913661 305913661_305913663 305913663_128882514 128882514_1519470746 1519470746_31477172 31477172_1519470912 1519470912_283059741 283059741_129288570 129288570_2006021064 2006021064_5034416925 5034416925_1519470958 1519470958_4696480570 4696480570_319860962 319860962_4696480571 4696480571_1519471032 1519471032_1519471015 1519471015_1521014718 1521014718_31477171 31477171_1519471011 1519471011_355817578 355817578_355817533 355817533_2684469926 2684469926_1965865394 1965865394_266727401 266727401_1519470963 1519470963_1965865396 1965865396_1965865389 1965865389_1965865392 1965865392_370959804 370959804_1519470952 1519470952_1519470752 1519470752_384023184 384023184_3823791811 3823791811_493102261 493102261_384024182 384024182_493102256 493102256_384023187 384023187_151434597 151434597_151434675 151434675_151434539 151434539_603034258 603034258_2149732936 2149732936_151434703 151434703_603034267 603034267_233246975 233246975_233245054 233245054_233243550 233243550_2214002881 2214002881_233243431 233243431_2214002873 2214002873_574305305 574305305_574305307 574305307_233270706 233270706_384006280 384006280_384006291 384006291_401506303 401506303_384006377 384006377_384006381 384006381_233270671 233270671_233270747 233270747_574311880 574311880_233262857 233262857_233262833 233262833_448077310 448077310_233270824 233270824_233262815 233262815_679680988 679680988_679680985 679680985_384005174 384005174_2204643284 2204643284_233274958 233274958_2204643308 2204643308_361268957 361268957_540050221 540050221_540050220 540050220_540050219 540050219_389150540 389150540_389150537 389150537_388569480 388569480_4000075632 4000075632_2199393936 2199393936_4294474597 4294474597_4294474596 4294474596_2199393955 2199393955_4000075630 4000075630_4000075629 4000075629_4294470722 4294470722_244222136 244222136_230778341 230778341_140980641 140980641_600326363 600326363_600326375 600326375_233315158 233315158_233315178 233315178_598142317 598142317_598142319 598142319_598142324 598142324_598142327 598142327_598142331 598142331_233315192 233315192_2766300605 2766300605_476210694 476210694_368380515 368380515_2717237174 2717237174_2717237172 2717237172_140980391 140980391_140980377 140980377_1287239238 1287239238_2717237169 2717237169_1287239225 1287239225_1287239228 1287239228_1287239221 1287239221_1287339209 1287339209_1287239245 1287239245_1287239271 1287239271_1287239240 1287239240_1287339281 1287339281_1287239206 1287239206_1985549819 1985549819_370230657 370230657_366082639 366082639_1725216267 1725216267_137181198 137181198_367849057 367849057_137181126 137181126_677245571 677245571_367849048 367849048_137181091 137181091_330775681 330775681_1985546060 1985546060_137182981 137182981_356215206 356215206_356215182 356215182_356215222 356215222_356215218 356215218_356215170 356215170_356215152 356215152_356215157 356215157_356215162 356215162_2505811398 2505811398_1492410162 1492410162_1492410185 1492410185_1492410156 1492410156_1492410217 1492410217_1492410213 1492410213_312718905 312718905_775942860 775942860_33238476 33238476_3933082771 3933082771_312718293 312718293_52600140 52600140_1725216623 1725216623_3933082767 3933082767_52600163 52600163_777828239 777828239_2383215085 2383215085_307350280 307350280_777833057 777833057_777829815 777829815_777829277 777829277_777832607 777832607_307350279 307350279_777831467 777831467_777827023 777827023_777826283 777826283_777826228 777826228_30943324 30943324_780909297 780909297_780910447 780910447_780910234 780910234_780909517 780909517_89531904 89531904_3933082774 3933082774_611991914 611991914_611991913 611991913_3218293558 3218293558_767737822 767737822_767737819 767737819_1833123399 1833123399_282825888 282825888_444806533 444806533_781036785 781036785_611991922 611991922_611991925 611991925_611991917 611991917_611991907 611991907_1927187700 1927187700_282825882 282825882_444806546 444806546_2640755142 2640755142_387153077 387153077_387153076 387153076_3933085096 3933085096_287629316 287629316_1833126497 1833126497_1833123395 1833123395_1927197437 1927197437_282825839 282825839_1927197435 1927197435_282825831 282825831_1927197433 1927197433_1927197438 1927197438_282825830 282825830_287629353 287629353_287629359 287629359_287629366 287629366_287629363 287629363_287629372 287629372_4730421708 4730421708_4730421707 4730421707_781023109 781023109_781093034 781093034_387153070 387153070_780995790 780995790_838386039 838386039_781112997 781112997_781112995 781112995_781112992 781112992_33317568 33317568_2365009329 2365009329_838386042 838386042_781112986 781112986_3218293524 3218293524_781137525 781137525_2207974398 2207974398_781137430 781137430_781093248 781093248_287630690 287630690_3218293522 3218293522_287630684 287630684_287630673 287630673_287630670 287630670_287630661 287630661_387152942 387152942_702451433 702451433_702451699 702451699_3394764076 3394764076_387152931 387152931_287630734 287630734_702450201 702450201_4633573547 4633573547_4633573546 4633573546_287630739 287630739_4633573544 4633573544_702378611 702378611_332544824 332544824_332543902 332543902_3394781452 3394781452_702363904 702363904_130038130 130038130_130038129 130038129_702363903 702363903_130038128 130038128_130038127 130038127_306383379 306383379_702363855 702363855_702363888 702363888_30942253 30942253_702351483 702351483_702351482 702351482_702351481 702351481_130038331 130038331_130038330 130038330_130038296 130038296_130038295 130038295_130038294 130038294_130038293 130038293_130038292 130038292_30942252 30942252_30942249 30942249_702351475 702351475_30942248 30942248_76459457 76459457_702351474 702351474_130039046 130039046_702351473 702351473_702351447 702351447_130039064 130039064_3790949319 3790949319_1833875777 1833875777_3555805912 3555805912_4273053908 4273053908_3790949317 3790949317_3790949307 3790949307_130040068 130040068_583063758 583063758_3790949308 3790949308_583063770 583063770_583063769 583063769_583063768 583063768_583063767 583063767_583063766 583063766_583063765 583063765_583063764 583063764_583063763 583063763_583063762 583063762_583063761 583063761_583063760 583063760_583063759 583063759_583063751 583063751_95563880 95563880_95563879 95563879_95563878 95563878_95563877 95563877_95563876 95563876_95563875 95563875_95562828 95562828_95562827 95562827_95562826 95562826_95562825 95562825_95562823 95562823_95569469 95569469_202484608 202484608_95562822 95562822_95562821 95562821_3326880146 3326880146_3326880160 3326880160_3326880162 3326880162_3326880155 3326880155_3326880148 3326880148_2401378847 2401378847_2401378846 2401378846_1112411439 1112411439_1112411392 1112411392_1112411411 1112411411_1112411407 1112411407_1112411379 1112411379_1112411390 1112411390_1112411445 1112411445_1112411450 1112411450_1112411427 1112411427_130044430 130044430_130043644 130043644_130042836 130042836_130042835 130042835_130042834 130042834_2479076502 2479076502_130042833 130042833_67610780 67610780_2479076496 2479076496_2479076495 2479076495_30942238 30942238_583197079 583197079_622959760 622959760_130042127 130042127_5536422989 5536422989_622959751 622959751_314471695 314471695_2089553092 2089553092_249995251 249995251_622991399 622991399_622991383 622991383_249996470 249996470_4787377405 4787377405_249995249 249995249_4443156862 4443156862_4787388649 4787388649_4787388648 4787388648_122732708 122732708_3363087390 3363087390_3367881241 3367881241_3367881237 3367881237_249996882 249996882_249997007 249997007_3769827298 3769827298_250001736 250001736_250001977 250001977_3363089039 3363089039_250001978 250001978_4921454147 4921454147_250002299 250002299_4716365737 4716365737_4785817343 4785817343_2692537402 2692537402_4716365738 4716365738_2309659670 2309659670_623023889 623023889_623023895 623023895_250002953 250002953_4971465962 4971465962_4971465961 4971465961_4971465960 4971465960_4971456847 4971456847_4971455989 4971455989_4971455988 4971455988_4971455987 4971455987_4971455986 4971455986_4971455985 4971455985_4971455984 4971455984_4971455983 4971455983_4971455982 4971455982_4754213728 4754213728_4754213727 4754213727_4752173787 4752173787_3394812224 3394812224_3394812226 3394812226_3394812225 3394812225_4752173777 4752173777_309078339 309078339_321118618 321118618_1979014591 1979014591_4681001878 4681001878_1979014594 1979014594_1979014596 1979014596_1979014598 1979014598_1979014600 1979014600_4681001872 4681001872_4681001871 4681001871_4681001870 4681001870_4681001869 4681001869_321118514 321118514_321118513 321118513_616526895 616526895_1979014605 1979014605_4785789296 4785789296_3218560216 3218560216_3218560215 3218560215_616528370 616528370_616528339 616528339_616528338 616528338_616528340 616528340_459427600 459427600_4789348090 4789348090_321119022 321119022_321531128 321531128_321119839 321119839_1358269999 1358269999_250291395 250291395_320085844 320085844_320493842 320493842_320085847 320085847_320493749 320493749_320085879 320085879_320491392 320491392_320085894 320085894_588501225 588501225_320085942 320085942_320491659 320491659_616528293 616528293_320491327 320491327_320086226 320086226_320491275 320491275_320086235 320086235_320491221 320491221_320491266 320491266_571835677 571835677_571835358 571835358_571835673 571835673_571835357 571835357_571835675 571835675_571835356 571835356_571835355 571835355_571835354 571835354_571835353 571835353_571835352 571835352_571835351 571835351_3189524835 3189524835_571835330 571835330_3189524836 3189524836_320490842 320490842_5102884583 5102884583_320490834 320490834_320494333 320494333_320494404 320494404_250291403 250291403_2100795443 2100795443_2100795447 2100795447_2100795444 2100795444_250291406 250291406_2100795449 2100795449_2102878576 2102878576_3855646548 3855646548_2100795445 2100795445_3855646546 3855646546_3855646547 3855646547_3855646545 3855646545_250291504 250291504_2100795462 2100795462_253546192 253546192_250291418 250291418_320852504 320852504_370708114 370708114_370708264 370708264_370708343 370708343_370708381 370708381_320852621 320852621_1833869065 1833869065_2612216102 2612216102_370708433 " id="route0" /><route edges="1928298965_313441047 313441047_313440696 313440696_313254247 313254247_313254248 313254248_313254135 313254135_313254237 313254237_313254107 313254107_313254089 313254089_313140253 313140253_313140004 313140004_313140309 313140309_313140381 313140381_313140108 313140108_670001388 670001388_313140003 313140003_4889662608 4889662608_313140000 313140000_310001316 310001316_5315879306 5315879306_310001318 310001318_530329329 530329329_530329237 530329237_604125669 604125669_310001315 310001315_4695022131 4695022131_4695022403 4695022403_310001313 310001313_310001304 310001304_309977100 309977100_2123710638 2123710638_2123710633 2123710633_370482123 370482123_2123710644 2123710644_370482115 370482115_2123710641 2123710641_370482120 370482120_2123710643 2123710643_2123710634 2123710634_370482117 370482117_309977235 309977235_309977505 309977505_309977300 309977300_309977428 309977428_309977132 309977132_263991606 263991606_1657066768 1657066768_4679496733 4679496733_1657066780 1657066780_1657066700 1657066700_1657066749 1657066749_1657066765 1657066765_1657066770 1657066770_1657066724 1657066724_4679496786 4679496786_3811090737 3811090737_4679496788 4679496788_4679496889 4679496889_4679496890 4679496890_4679496891 4679496891_4679496892 4679496892_4679496893 4679496893_4679496894 4679496894_4679496895 4679496895_4679496896 4679496896_4679496897 4679496897_4679496898 4679496898_2247591101 2247591101_2247672417 2247672417_2247591117 2247591117_876910906 876910906_309984697 309984697_21643741 21643741_309989573 309989573_309989084 309989084_1657067339 1657067339_309988225 309988225_2247662465 2247662465_1657067341 1657067341_309971077 309971077_309985025 309985025_309970358 309970358_309970191 309970191_2080740198 2080740198_3207124707 3207124707_309969854 309969854_309981741 309981741_309969575 309969575_309981391 309981391_3224362682 3224362682_4204671698 4204671698_309969280 309969280_309979013 309979013_4790942634 4790942634_309979105 309979105_4169720251 4169720251_2245333840 2245333840_2245339628 2245339628_2245339643 2245339643_4169720287 4169720287_29936553 29936553_4169720259 4169720259_309978787 309978787_4288151637 4288151637_1522566362 1522566362_1522834394 1522834394_1522834395 1522834395_1522834446 1522834446_1522834429 1522834429_1522834316 1522834316_1522834336 1522834336_1522834355 1522834355_31477188 31477188_31477187 31477187_31477186 31477186_2940375840 2940375840_370477432 370477432_214122372 214122372_370477489 370477489_31477185 31477185_31477184 31477184_2940375839 2940375839_370477495 370477495_214122180 214122180_214092481 214092481_541122878 541122878_31477183 31477183_5546311686 5546311686_740374973 740374973_114268737 114268737_299026732 299026732_2567155992 2567155992_541122843 541122843_608962184 608962184_541122905 541122905_906234098 906234098_906234090 906234090_906234099 906234099_906234081 906234081_906234088 906234088_906234083 906234083_906234091 906234091_906234096 906234096_906234093 906234093_906234084 906234084_906234092 906234092_906234082 906234082_906234094 906234094_906234085 906234085_2384157684 2384157684_906234086 906234086_906234097 906234097_906234089 906234089_906234087 906234087_1192149947 1192149947_906234095 906234095_3067843936 3067843936_827113739 827113739_128874949 128874949_4698523258 4698523258_128874985 128874985_305913666 305913666_151451933 151451933_305913661 305913661_305913663 305913663_128882514 128882514_1519470746 1519470746_31477172 31477172_1519470912 1519470912_283059741 283059741_129288570 129288570_2006021064 2006021064_5034416925 5034416925_1519470958 1519470958_4696480570 4696480570_319860962 319860962_4696480571 4696480571_1519471032 1519471032_1519471015 1519471015_1521014718 1521014718_31477171 31477171_1519471011 1519471011_355817578 355817578_355817533 355817533_2684469926 2684469926_1965865394 1965865394_266727401 266727401_1519470963 1519470963_1965865396 1965865396_1965865389 1965865389_1965865392 1965865392_370959804 370959804_1519470952 1519470952_370959818 370959818_151434783 151434783_384027122 384027122_493102370 493102370_493102368 493102368_384027590 384027590_493102365 493102365_384026989 384026989_151442490 151442490_233247071 233247071_401505827 401505827_2428769531 2428769531_2428766397 2428766397_233247050 233247050_233270770 233270770_385176258 385176258_385176413 385176413_233255161 233255161_233255141 233255141_384006371 384006371_443312165 443312165_4320623055 4320623055_4320623054 4320623054_4320623053 4320623053_361757165 361757165_443312163 443312163_4320623052 4320623052_443312162 443312162_361757162 361757162_443312161 443312161_443312160 443312160_2457712011 2457712011_233262833 233262833_448077311 448077311_2204643303 2204643303_30287473 30287473_2204643311 2204643311_679722416 679722416_244548946 244548946_230782542 230782542_564470489 564470489_2199393931 2199393931_4294474593 4294474593_4294474592 4294474592_2200544462 2200544462_2199393938 2199393938_2199393943 2199393943_2199393945 2199393945_2199393955 2199393955_4000075630 4000075630_4000075629 4000075629_4294470722 4294470722_244222136 244222136_230778341 230778341_305538882 305538882_2325395482 2325395482_33318861 33318861_34160626 34160626_34160623 34160623_324234883 324234883_2766300606 2766300606_2766300605 2766300605_476210694 476210694_368380515 368380515_368380516 368380516_331163880 331163880_331143078 331143078_472236199 472236199_2766300592 2766300592_472236196 472236196_5096779234 5096779234_4061250656 4061250656_5096779236 5096779236_370243518 370243518_33238508 33238508_33238509 33238509_370243956 370243956_30287315 30287315_1985549819 1985549819_370230657 370230657_366082639 366082639_1725216267 1725216267_137181198 137181198_367849063 367849063_367849065 367849065_1492169279 1492169279_1492169318 1492169318_1492169261 1492169261_1492169336 1492169336_1492169348 1492169348_1492169335 1492169335_1492169360 1492169360_1492169293 1492169293_312719433 312719433_312719417 312719417_1725216215 1725216215_1881118510 1881118510_33238480 33238480_1888086818 1888086818_312719443 312719443_245802961 245802961_312718923 312718923_312718915 312718915_1725216340 1725216340_137181013 137181013_364329376 364329376_312718912 312718912_4360750252 4360750252_312718909 312718909_312718908 312718908_4360750251 4360750251_312718907 312718907_1725216363 1725216363_5427911108 5427911108_5422000175 5422000175_5427927100 5427927100_955611519 955611519_871096410 871096410_1953967173 1953967173_5427930595 5427930595_3947038080 3947038080_5425783496 5425783496_880187088 880187088_778827462 778827462_778826514 778826514_778827730 778827730_778827731 778827731_778827733 778827733_778827735 778827735_778827738 778827738_778828513 778828513_778828640 778828640_778828638 778828638_778828636 778828636_30240836 30240836_1691663877 1691663877_30240835 30240835_30240834 30240834_1492416087 1492416087_2209383543 2209383543_2209528942 2209528942_2209383387 2209383387_2209383495 2209383495_4326586167 4326586167_4326586166 4326586166_2209383610 2209383610_778809792 778809792_778809790 778809790_778809788 778809788_778809786 778809786_4069715681 4069715681_778814205 778814205_4069715680 4069715680_3281154367 3281154367_1833120504 1833120504_663121238 663121238_1283617973 1283617973_1283617988 1283617988_1283618014 1283618014_1283618029 1283618029_1283617960 1283617960_4443178785 4443178785_4443178786 4443178786_962965881 962965881_1281079272 1281079272_4029432529 4029432529_4029432530 4029432530_4029432531 4029432531_4029432532 4029432532_4029432533 4029432533_4029432534 4029432534_1281079248 1281079248_1281079267 1281079267_4029432535 4029432535_1281079252 1281079252_1281079257 1281079257_1280096280 1280096280_1280096258 1280096258_470956440 470956440_470956439 470956439_470956443 470956443_470956430 470956430_470956428 470956428_2207661121 2207661121_2207661079 2207661079_2207661107 2207661107_2207663833 2207663833_2207663835 2207663835_2207663861 2207663861_2207663873 2207663873_2207663821 2207663821_2208013597 2208013597_2208013601 2208013601_2208013606 2208013606_2208013611 2208013611_470252906 470252906_127578077 127578077_470252904 470252904_470252907 470252907_387152951 387152951_387152950 387152950_560323616 560323616_560323695 560323695_560323598 560323598_560323684 560323684_390923610 390923610_560323676 560323676_390923703 390923703_390923704 390923704_570737537 570737537_2599174418 2599174418_390923549 390923549_560227781 560227781_127619984 127619984_2599164442 2599164442_127621436 127621436_387152914 387152914_1886460008 1886460008_387152961 387152961_86674156 86674156_566444092 566444092_554192113 554192113_566444074 566444074_86674159 86674159_554192129 554192129_580161234 580161234_1892867041 1892867041_554192131 554192131_5372462500 5372462500_86674161 86674161_95545797 95545797_95545442 95545442_95545263 95545263_95545170 95545170_95518992 95518992_2420282158 2420282158_95518993 95518993_2420282160 2420282160_2420282159 2420282159_95558299 95558299_3907396464 3907396464_95558396 95558396_95558492 95558492_95558530 95558530_95557749 95557749_95557846 95557846_95557975 95557975_3907396462 3907396462_95558204 95558204_3211892694 3211892694_95554479 95554479_95554604 95554604_95562834 95562834_95562833 95562833_95562832 95562832_2501238127 2501238127_95562831 95562831_95562829 95562829_95562828 95562828_95562827 95562827_95562826 95562826_95562825 95562825_95562823 95562823_95569469 95569469_202484608 202484608_95562822 95562822_95562821 95562821_3326880146 3326880146_3326880160 3326880160_3326880162 3326880162_3326880155 3326880155_3326880148 3326880148_2401378847 2401378847_2401378846 2401378846_1112411439 1112411439_1112411392 1112411392_1112411411 1112411411_1112411407 1112411407_1112411379 1112411379_1112411390 1112411390_1112411445 1112411445_1112411450 1112411450_1112411427 1112411427_130044430 130044430_130043644 130043644_3790949326 3790949326_3790949327 3790949327_3790949328 3790949328_3790949329 3790949329_3790949330 3790949330_3790949331 3790949331_583197079 583197079_622959760 622959760_130042127 130042127_314471206 314471206_249993652 249993652_622991340 622991340_622991336 622991336_622991332 622991332_622991329 622991329_622991326 622991326_622991323 622991323_622991320 622991320_622991316 622991316_622991313 622991313_344814821 344814821_5456948841 5456948841_583195987 583195987_5043842064 5043842064_5456948850 5456948850_5456948849 5456948849_5456948851 5456948851_2720130577 2720130577_2720130576 2720130576_2720130589 2720130589_2720130599 2720130599_2720130598 2720130598_2720130597 2720130597_2720130596 2720130596_2720130594 2720130594_2720130595 2720130595_2720130593 2720130593_2720130592 2720130592_4785715619 4785715619_250043045 250043045_1055899379 1055899379_250042955 250042955_583194142 583194142_583194172 583194172_583194178 583194178_2612992588 2612992588_583189866 583189866_583189536 583189536_2469612678 2469612678_583188386 583188386_583189160 583189160_3680410387 3680410387_583189157 583189157_583189154 583189154_3680410388 3680410388_3680410384 3680410384_583189151 583189151_583189150 583189150_583189149 583189149_583189144 583189144_583188038 583188038_583185923 583185923_583187147 583187147_583185523 583185523_344812998 344812998_122727218 122727218_583186869 583186869_122727216 122727216_4717969677 4717969677_348740779 348740779_4683319519 4683319519_4746494709 4746494709_4683319517 4683319517_4683319511 4683319511_583186184 583186184_4746494697 4746494697_4683319510 4683319510_583186181 583186181_583186179 583186179_583186212 583186212_583186177 583186177_583186176 583186176_4746494692 4746494692_583186175 583186175_583186173 583186173_583186172 583186172_4746494710 4746494710_583186167 583186167_583186171 583186171_4746679981 4746679981_583186164 583186164_583185571 583185571_583185596 583185596_250007199 250007199_5422140593 5422140593_250042564 250042564_250010024 250010024_4949987419 4949987419_4949987393 4949987393_250009962 250009962_250006988 250006988_4765991931 4765991931_4765991930 4765991930_4765991929 4765991929_250010195 250010195_4765991928 4765991928_4765991927 4765991927_4765991926 4765991926_4949987415 4949987415_4949987388 4949987388_4949987389 4949987389_4949987386 4949987386_250006990 250006990_250291087 250291087_250291047 250291047_3199571663 3199571663_122723720 122723720_250291067 250291067_4780154214 4780154214_4780154213 4780154213_321531944 321531944_3783330874 3783330874_321531690 321531690_321531586 321531586_3783330871 3783330871_321531479 321531479_321531457 321531457_321536388 321536388_321536370 321536370_321540253 321540253_321540261 321540261_5484183939 5484183939_320492154 320492154_3783330868 3783330868_320492315 320492315_320480779 320480779_696116921 696116921_696116922 696116922_696116923 696116923_320492144 320492144_320480232 320480232_3879092525 3879092525_3189540981 3189540981_320488136 320488136_320487375 320487375_250287939 250287939_320487333 320487333_4740979694 4740979694_4740979695 4740979695_4740979693 4740979693_348727142 348727142_348727146 348727146_348727152 348727152_320486447 320486447_3199558029 3199558029_3199558027 3199558027_320486605 320486605_4748649057 4748649057_4748649050 4748649050_320490267 320490267_5023616970 5023616970_5023616979 5023616979_5023616967 5023616967_5023617025 5023617025_5023617020 5023617020_5023617021 5023617021_5023616985 5023616985_5023616982 5023616982_5023616973 5023616973_5023616975 5023616975_5023616965 5023616965_5023616960 5023616960_4817444039 4817444039_320489335 320489335_320489336 320489336_320489337 320489337_253539031 253539031_36022328 36022328_2299087316 2299087316_2299087319 2299087319_2299087318 2299087318_2299087321 2299087321_370708433 " id="route1" /><route edges="1928298965_313441047 313441047_313440696 313440696_313254247 313254247_313254248 313254248_313254135 313254135_313254237 313254237_313254107 313254107_313254089 313254089_313140253 313140253_313140255 313140255_313140297 313140297_875512291 875512291_875512290 875512290_673083767 673083767_673083766 673083766_673083764 673083764_313140107 313140107_313140045 313140045_313248462 313248462_21643809 21643809_313248453 313248453_462859358 462859358_462868395 462868395_311901574 311901574_310001311 310001311_3496672103 3496672103_311902363 311902363_310001304 310001304_309977100 309977100_2123710642 2123710642_370482122 370482122_2123710629 2123710629_370482116 370482116_2123710640 2123710640_370482121 370482121_2123710630 2123710630_370482117 370482117_309977235 309977235_309977202 309977202_309975324 309975324_309977265 309977265_1657066726 1657066726_309975092 309975092_309975064 309975064_1657066778 1657066778_5300049085 5300049085_5300049098 5300049098_5300049099 5300049099_5300049100 5300049