<nodes><node id="280920081" x="144.935774" y="-37.790239" /><node id="4283908114" x="144.9768239" y="-37.8078958" /><node id="145268763" x="144.9809886" y="-37.7855706" /><node id="145268764" x="144.9796968" y="-37.7854292" /><node id="280920096" x="144.9357561" y="-37.7903289" /><node id="4283908130" x="144.9837022" y="-37.8090155" /><node id="4283908132" x="144.9836968" y="-37.8090493" /><node id="3863773226" x="144.9475326" y="-37.8257134" /><node id="3863773230" x="144.9477248" y="-37.8253657" /><node id="356474935" x="144.9920191" y="-37.7997424" /><node id="2173154655" x="144.9703239" y="-37.816547" /><node id="4283908160" x="144.9754623" y="-37.8104908" /><node id="244080705" x="144.901961" y="-37.8593342" /><node id="256708619" x="145.0061926" y="-37.7822043" /><node id="3162726473" x="144.9315309" y="-37.7912794" /><node id="3162726475" x="144.9316239" y="-37.7913219" /><node id="1833115725" x="144.9519159" y="-37.8217763" /><node id="3162726479" x="144.9315008" y="-37.7912864" /><node id="67698776" x="144.9234332" y="-37.7930414" /><node id="244080739" x="144.9019067" y="-37.8594573" /><node id="99557477" x="144.9820099" y="-37.7909241" /><node id="244077929" x="144.9019953" y="-37.8644757" /><node id="36823160" x="144.9480913" y="-37.8245375" /><node id="36823161" x="144.9480425" y="-37.8243231" /><node id="36823162" x="144.9479092" y="-37.8236119" /><node id="36823163" x="144.947938" y="-37.8233238" /><node id="36823164" x="144.9479886" y="-37.8231919" /><node id="36823165" x="144.9481115" y="-37.8230148" /><node id="36823166" x="144.9483089" y="-37.8228453" /><node id="36823167" x="144.9485164" y="-37.822732" /><node id="36823168" x="144.9489097" y="-37.822608" /><node id="36823169" x="144.9491583" y="-37.8225715" /><node id="36823171" x="144.9502368" y="-37.822363" /><node id="3221110918" x="144.9590937" y="-37.78945" /><node id="3221110919" x="144.9590699" y="-37.7895314" /><node id="3221110920" x="144.9590376" y="-37.7897428" /><node id="3221110921" x="144.958997" y="-37.7897811" /><node id="3221110922" x="144.9589895" y="-37.7898592" /><node id="266076304" x="144.9937866" y="-37.7949167" /><node id="575529129" x="144.9919679" y="-37.7830224" /><node id="575529136" x="144.993688" y="-37.7842513" /><node id="575529137" x="144.9937362" y="-37.7843187" /><node id="575529138" x="144.9937732" y="-37.7845046" /><node id="575529141" x="144.9922197" y="-37.7829609" /><node id="2031381196" x="144.9852323" y="-37.7816809" /><node id="280920274" x="144.9360449" y="-37.7888296" /><node id="897425626" x="144.9752729" y="-37.784301" /><node id="2602459356" x="144.9164316" y="-37.7953922" /><node id="147603677" x="144.9805731" y="-37.7855241" /><node id="67698911" x="144.9237761" y="-37.7934339" /><node id="268533990" x="144.97473" y="-37.8117705" /><node id="268533993" x="144.9753482" y="-37.8107359" /><node id="26476812" x="144.9248442" y="-37.8275539" /><node id="92242202" x="144.9310789" y="-37.7912765" /><node id="571834658" x="144.8956258" y="-37.8304994" /><node id="144720206" x="144.9567089" y="-37.8204972" /><node id="60096861" x="144.969785" y="-37.8185853" /><node id="1440096616" x="145.0136597" y="-37.7845577" /><node id="1440096617" x="145.014118" y="-37.7844959" /><node id="1440096628" x="145.0132449" y="-37.7846368" /><node id="1440096629" x="145.0134349" y="-37.7845731" /><node id="1440096635" x="145.0128479" y="-37.7848509" /><node id="448176511" x="144.9877576" y="-37.7835328" /><node id="1440096640" x="145.0125341" y="-37.7850056" /><node id="1440096641" x="145.0123893" y="-37.7851243" /><node id="591430026" x="144.9641397" y="-37.8183458" /><node id="21578128" x="144.9354129" y="-37.8257005" /><node id="144720284" x="144.9559442" y="-37.82072" /><node id="279249331" x="144.9283266" y="-37.7921458" /><node id="92242361" x="144.9306254" y="-37.7912222" /><node id="33448386" x="144.9663726" y="-37.7852031" /><node id="3162726477" x="144.9315887" y="-37.7912897" /><node id="2199405008" x="144.9768808" y="-37.7864645" /><node id="243645176" x="144.9820281" y="-37.7854104" /><node id="33448406" x="144.966573" y="-37.7852229" /><node id="33448421" x="144.968766" y="-37.7854404" /><node id="991978006" x="144.9684375" y="-37.8201228" /><node id="122716696" x="144.8888792" y="-37.8254389" /><node id="1390576154" x="144.9016355" y="-37.8546049" /><node id="1390576163" x="144.901199" y="-37.8541555" /><node id="244859445" x="144.9877631" y="-37.7836967" /><node id="3938525751" x="144.966936" y="-37.8212793" /><node id="3938525752" x="144.9669813" y="-37.8213709" /><node id="2692573962" x="144.9088762" y="-37.8020413" /><node id="256713284" x="145.0140493" y="-37.7831655" /><node id="583184481" x="144.9090603" y="-37.8015904" /><node id="1449297335" x="144.9798989" y="-37.8157277" /><node id="233314999" x="144.9774972" y="-37.8040872" /><node id="897426000" x="144.9757237" y="-37.784353" /><node id="897426003" x="144.9762075" y="-37.7844026" /><node id="227786853" x="144.9858197" y="-37.7830218" /><node id="1297046419" x="144.9697632" y="-37.7842906" /><node id="3949699690" x="144.9789452" y="-37.7955524" /><node id="599433839" x="145.0177583" y="-37.7832897" /><node id="4428399217" x="144.8808864" y="-37.8257093" /><node id="130175083" x="144.9808441" y="-37.782985" /><node id="1691306777" x="145.0039256" y="-37.7799904" /><node id="1833110298" x="144.9674084" y="-37.8173972" /><node id="3561071276" x="144.8964591" y="-37.8436909" /><node id="242328245" x="144.9163322" y="-37.8312677" /><node id="242328246" x="144.9170524" y="-37.8308609" /><node id="86688443" x="144.930896" y="-37.7912546" /><node id="242328252" x="144.9220775" y="-37.8283558" /><node id="242328254" x="144.9227414" y="-37.8280942" /><node id="242328255" x="144.9233583" y="-37.8279088" /><node id="664380096" x="144.9672094" y="-37.8211609" /><node id="301548245" x="144.9854537" y="-37.8052301" /><node id="111328844" x="145.0074185" y="-37.7907838" /><node id="1525908946" x="144.9696843" y="-37.8167372" /><node id="227786879" x="144.9857534" y="-37.7835102" /><node id="122820053" x="144.8808699" y="-37.8259984" /><node id="589742849" x="144.9548593" y="-37.8210279" /><node id="846570246" x="144.9681797" y="-37.8186892" /><node id="4283908889" x="144.9744946" y="-37.8121266" /><node id="4283908893" x="144.9742733" y="-37.8124992" /><node id="4283908898" x="144.9739665" y="-37.8130163" /><node id="3949536064" x="144.9793704" y="-37.7930466" /><node id="3949536066" x="144.9793438" y="-37.793203" /><node id="3949536067" x="144.9793165" y="-37.7933642" /><node id="3949536071" x="144.9792785" y="-37.7935882" /><node id="2088141648" x="144.9903492" y="-37.7834197" /><node id="3285607263" x="144.9517487" y="-37.8271264" /><node id="147604338" x="144.9809882" y="-37.7830015" /><node id="1287463804" x="144.9692586" y="-37.7854887" /><node id="147607701" x="144.9823676" y="-37.7831536" /><node id="1287463813" x="144.9696276" y="-37.7845885" /><node id="3950822288" x="144.8807107" y="-37.8270407" /><node id="3950822289" x="144.8803384" y="-37.8270822" /><node id="938091425" x="144.9834574" y="-37.8105091" /><node id="2337129972" x="144.9949239" y="-37.793815" /><node id="86688712" x="144.9303016" y="-37.7911834" /><node id="1287463889" x="144.9696459" y="-37.7844494" /><node id="1287463899" x="144.9696592" y="-37.7843366" /><node id="2103616478" x="144.8730992" y="-37.8281645" /><node id="2103616479" x="144.8731318" y="-37.8280795" /><node id="2103616480" x="144.8724463" y="-37.8287081" /><node id="2103616481" x="144.87258" y="-37.8286836" /><node id="2103616484" x="144.872676" y="-37.8286866" /><node id="2103616485" x="144.8726423" y="-37.8286943" /><node id="2103616486" x="144.8727323" y="-37.8286181" /><node id="2103616490" x="144.872725" y="-37.8286451" /><node id="2103616491" x="144.8725534" y="-37.8286655" /><node id="2103616493" x="144.8727275" y="-37.8285907" /><node id="55108601" x="144.9672218" y="-37.7852891" /><node id="2209383418" x="144.958825" y="-37.7898347" /><node id="452355069" x="144.9434702" y="-37.8256294" /><node id="452355070" x="144.9445345" y="-37.8257107" /><node id="452355071" x="144.9453486" y="-37.8257803" /><node id="452355072" x="144.945958" y="-37.8258549" /><node id="452355073" x="144.9462241" y="-37.8258888" /><node id="1287463942" x="144.9695627" y="-37.7850097" /><node id="452355079" x="144.9403254" y="-37.82542" /><node id="583184556" x="144.9148898" y="-37.7996736" /><node id="846570506" x="144.9701578" y="-37.8185207" /><node id="319710220" x="144.8639318" y="-37.8337778" /><node id="319710222" x="144.8655103" y="-37.8339623" /><node id="298045614" x="144.9667789" y="-37.8227467" /><node id="250037272" x="144.9001283" y="-37.8531414" /><node id="583189536" x="144.9067052" y="-37.8062214" /><node id="2209383462" x="144.9587078" y="-37.7898231" /><node id="583184562" x="144.914973" y="-37.7996265" /><node id="86656050" x="144.9434101" y="-37.789401" /><node id="1297046368" x="144.9695382" y="-37.7854818" /><node id="3380347999" x="145.0140014" y="-37.7845105" /><node id="583184576" x="144.9151326" y="-37.7995258" /><node id="122725511" x="144.8995547" y="-37.8154413" /><node id="559301771" x="144.9960893" y="-37.7831661" /><node id="559301772" x="144.9960537" y="-37.7831739" /><node id="723797140" x="145.0030744" y="-37.7934214" /><node id="559301795" x="144.9987971" y="-37.7844996" /><node id="571770021" x="145.0024937" y="-37.7933886" /><node id="571770022" x="145.0026224" y="-37.7933674" /><node id="250039861" x="144.9007892" y="-37.8537649" /><node id="3319940273" x="144.9117852" y="-37.8333931" /><node id="3319940275" x="144.9124685" y="-37.8331913" /><node id="2412004535" x="144.8950202" y="-37.8271166" /><node id="736011451" x="144.9685729" y="-37.8200819" /><node id="335620981" x="144.9999211" y="-37.7836297" /><node id="35726534" x="144.9157509" y="-37.795776" /><node id="35726548" x="144.9148244" y="-37.7966522" /><node id="35726549" x="144.9147462" y="-37.7966741" /><node id="35726550" x="144.9146907" y="-37.7966493" /><node id="35726551" x="144.9144268" y="-37.7964442" /><node id="35726552" x="144.9143131" y="-37.7963441" /><node id="256705753" x="145.0051428" y="-37.7801145" /><node id="358671585" x="144.8954498" y="-37.8316296" /><node id="475473124" x="145.012064" y="-37.7854371" /><node id="589747750" x="144.9537613" y="-37.8213485" /><node id="475473127" x="145.0122624" y="-37.7852435" /><node id="683083022" x="144.9209094" y="-37.8288971" /><node id="683083023" x="144.9212326" y="-37.828734" /><node id="683083024" x="144.9218267" y="-37.8284596" /><node id="583184603" x="144.9155597" y="-37.7989922" /><node id="1280017714" x="144.9497246" y="-37.7882652" /><node id="448796211" x="145.0078679" y="-37.7824118" /><node id="583184607" x="144.9157904" y="-37.7988296" /><node id="583184608" x="144.91584" y="-37.7987819" /><node id="295871816" x="144.8809759" y="-37.82493" /><node id="1280017765" x="144.9496876" y="-37.7882843" /><node id="589759848" x="144.9516461" y="-37.8217982" /><node id="4681213298" x="144.8950631" y="-37.8268966" /><node id="4681213299" x="144.8955113" y="-37.8244675" /><node id="583184617" x="144.916184" y="-37.7983305" /><node id="4681213309" x="144.895115" y="-37.826616" /><node id="4329375111" x="144.9677858" y="-37.8172864" /><node id="583184622" x="144.9161357" y="-37.7980078" /><node id="1449297306" x="144.9801537" y="-37.8157658" /><node id="583184623" x="144.9160358" y="-37.7978902" /><node id="583184624" x="144.9159714" y="-37.7978101" /><node id="1449297315" x="144.9817362" y="-37.8159407" /><node id="33572262" x="144.9922761" y="-37.7829096" /><node id="1449297319" x="144.9780252" y="-37.8155098" /><node id="1449297320" x="144.9797595" y="-37.8157086" /><node id="1449297324" x="144.9773305" y="-37.8154411" /><node id="1449297326" x="144.9782867" y="-37.8155386" /><node id="1449297327" x="144.9796031" y="-37.8156873" /><node id="5290706359" x="144.9758119" y="-37.8080923" /><node id="1449297336" x="144.9772045" y="-37.8154293" /><node id="370959804" x="144.9930199" y="-37.7980731" /><node id="1449297341" x="144.9801777" y="-37.8157682" /><node id="1449297343" x="144.9815135" y="-37.8159163" /><node id="583184630" x="144.9155255" y="-37.7972368" /><node id="846570962" x="144.9701108" y="-37.8185289" /><node id="244549079" x="144.9663687" y="-37.7852825" /><node id="5551556066" x="145.0160351" y="-37.7835419" /><node id="1280017896" x="144.949648" y="-37.7883047" /><node id="2337129969" x="144.996366" y="-37.7939605" /><node id="31286770" x="144.993583" y="-37.7828485" /><node id="31286771" x="144.9928963" y="-37.7830828" /><node id="31286772" x="144.992706" y="-37.7831564" /><node id="583184638" x="144.9151125" y="-37.7968612" /><node id="2337129975" x="144.9976389" y="-37.7940888" /><node id="3687613946" x="144.894881" y="-37.8454742" /><node id="3687613947" x="144.8948187" y="-37.8456557" /><node id="3687613949" x="144.8948263" y="-37.8457229" /><node id="583184644" x="144.9145626" y="-37.7964309" /><node id="250013210" x="144.8959998" y="-37.8286315" /><node id="250013211" x="144.8958878" y="-37.8285608" /><node id="250013212" x="144.895461" y="-37.8283126" /><node id="250013213" x="144.8951605" y="-37.8280907" /><node id="250013214" x="144.8949771" y="-37.827796" /><node id="250013215" x="144.8950133" y="-37.8274168" /><node id="392525404" x="144.9815602" y="-37.7830664" /><node id="392525405" x="144.9813224" y="-37.78304" /><node id="244860472" x="144.9850596" y="-37.7818795" /><node id="827000383" x="144.8942632" y="-37.8472992" /><node id="827000387" x="144.9020582" y="-37.8588559" /><node id="827000390" x="144.8944508" y="-37.8464612" /><node id="251848266" x="145.0178102" y="-37.7847794" /><node id="575522390" x="144.990943" y="-37.7823375" /><node id="3082413661" x="144.8949571" y="-37.8348371" /><node id="30287459" x="144.978131" y="-37.8003486" /><node id="31286885" x="145.0116319" y="-37.785516" /><node id="30287463" x="144.9793017" y="-37.7934516" /><node id="30287464" x="144.9772225" y="-37.8057117" /><node id="575522409" x="144.9887882" y="-37.78136" /><node id="392525415" x="144.9813746" y="-37.7829726" /><node id="30287469" x="144.9782225" y="-37.7998124" /><node id="30287471" x="144.9780854" y="-37.8006202" /><node id="30287473" x="144.9787445" y="-37.7967356" /><node id="1316062834" x="144.9398771" y="-37.7890959" /><node id="2774214269" x="144.9682058" y="-37.8171622" /><node id="575522449" x="144.9904857" y="-37.7819795" /><node id="1316062877" x="144.9390989" y="-37.7890011" /><node id="230246070" x="144.9921519" y="-37.7831478" /><node id="4752115386" x="144.8993209" y="-37.8167579" /><node id="230246081" x="144.9919221" y="-37.7830559" /><node id="230246108" x="144.9918693" y="-37.7830226" /><node id="33531617" x="144.9891005" y="-37.7858246" /><node id="301549282" x="144.9868182" y="-37.8023321" /><node id="33531628" x="144.9838356" y="-37.7833065" /><node id="230246135" x="144.9916534" y="-37.7829269" /><node id="33531646" x="144.9893062" y="-37.7858606" /><node id="1833150214" x="144.8980772" y="-37.8220492" /><node id="1833150216" x="144.898352" y="-37.8219671" /><node id="1833150219" x="144.8981796" y="-37.8220416" /><node id="5050099473" x="144.9647917" y="-37.8262885" /><node id="243074834" x="144.9823596" y="-37.7897999" /><node id="243074835" x="144.9825207" y="-37.789662" /><node id="243074837" x="144.9827461" y="-37.7895654" /><node id="243074839" x="144.9829803" y="-37.7895474" /><node id="448143003" x="144.9890654" y="-37.7858524" /><node id="571832417" x="144.9819566" y="-37.7831099" /><node id="5404591913" x="144.8952794" y="-37.8324982" /><node id="3862791979" x="144.9832675" y="-37.8116974" /><node id="3862791980" x="144.9833055" y="-37.8114598" /><node id="36824897" x="144.9479209" y="-37.8249453" /><node id="122822300" x="144.8853595" y="-37.8250205" /><node id="319932229" x="144.8727042" y="-37.8286703" /><node id="3494348621" x="144.9701227" y="-37.8185268" /><node id="2204477276" x="144.9815986" y="-37.7856092" /><node id="415860576" x="144.8870244" y="-37.8251562" /><node id="358672225" x="144.8954034" y="-37.8367483" /><node id="358672226" x="144.8952722" y="-37.8365479" /><node id="358672227" x="144.8953275" y="-37.8361687" /><node id="358672229" x="144.8950553" y="-37.8359113" /><node id="358672230" x="144.8949571" y="-37.8348164" /><node id="358672231" x="144.8950086" y="-37.8346198" /><node id="3311863658" x="144.9928316" y="-37.7992917" /><node id="3311863659" x="144.9927465" y="-37.7991745" /><node id="3311863660" x="144.9927579" y="-37.7990823" /><node id="358672254" x="144.8950859" y="-37.8344571" /><node id="1449355138" x="144.9767169" y="-37.8153746" /><node id="1449355145" x="144.9764461" y="-37.8153613" /><node id="130175298" x="144.9832" y="-37.789584" /><node id="1449355158" x="144.9751988" y="-37.8152264" /><node id="1449355160" x="144.976771" y="-37.8153785" /><node id="1449355162" x="144.9765399" y="-37.8153676" /><node id="1449355163" x="144.9734903" y="-37.8156114" /><node id="1449355165" x="144.9721498" y="-37.8160004" /><node id="2199414688" x="144.9772705" y="-37.7851554" /><node id="2199414690" x="144.9777404" y="-37.78263" /><node id="949544867" x="144.9298075" y="-37.7910827" /><node id="2199414694" x="144.9775967" y="-37.7826167" /><node id="4060743592" x="144.9795658" y="-37.7828329" /><node id="846546859" x="144.9686517" y="-37.8200547" /><node id="846546860" x="144.9686178" y="-37.8200671" /><node id="2199414701" x="144.9771274" y="-37.7851392" /><node id="2273421230" x="145.0066557" y="-37.7913889" /><node id="30287517" x="144.9910159" y="-37.7996411" /><node id="3109398453" x="144.9902575" y="-37.7834566" /><node id="949544886" x="144.9299427" y="-37.7911011" /><node id="3109398455" x="144.9897322" y="-37.7856806" /><node id="591415229" x="144.9609106" y="-37.8192844" /><node id="266086346" x="145.0143708" y="-37.7834673" /><node id="92137424" x="144.9500399" y="-37.8224115" /><node id="266086354" x="145.0150379" y="-37.7836872" /><node id="266086355" x="145.0155307" y="-37.783607" /><node id="266086356" x="145.0158959" y="-37.7835605" /><node id="266086357" x="145.0162319" y="-37.7835155" /><node id="266086358" x="145.0166574" y="-37.7834667" /><node id="266086359" x="145.0169956" y="-37.7834148" /><node id="244664282" x="144.9839045" y="-37.7832267" /><node id="846571483" x="144.969551" y="-37.818595" /><node id="1316038621" x="144.9382055" y="-37.7888922" /><node id="122718177" x="144.881188" y="-37.8249763" /><node id="2097585148" x="144.8991227" y="-37.8178745" /><node id="4060784618" x="144.9845503" y="-37.7889588" /><node id="122718188" x="144.8809182" y="-37.8267093" /><node id="122718190" x="144.8808759" y="-37.8261701" /><node id="1517193200" x="144.9825903" y="-37.8159335" /><node id="3873155060" x="144.9406831" y="-37.7891761" /><node id="122823005" x="144.8808998" y="-37.8264229" /><node id="319932465" x="144.8666564" y="-37.8306692" /><node id="2495801414" x="144.9844309" y="-37.7890557" /><node id="250038401" x="144.9015874" y="-37.8545511" /><node id="4520380551" x="144.9610823" y="-37.8192375" /><node id="4520380552" x="144.9610481" y="-37.8192474" /><node id="369109134" x="144.9671813" y="-37.8212791" /><node id="266725523" x="144.9936414" y="-37.7956845" /><node id="1519470760" x="144.9927383" y="-37.7998151" /><node id="4060768432" x="144.98054" y="-37.7916337" /><node id="1430915256" x="145.0145639" y="-37.7836349" /><node id="319934840" x="144.8710003" y="-37.8286431" /><node id="4060743921" x="144.9783778" y="-37.7852805" /><node id="277328254" x="144.99352" y="-37.7828687" /><node id="525355257" x="144.9521107" y="-37.7877727" /><node id="348227834" x="145.0191516" y="-37.7830204" /><node id="1449431423" x="144.9747162" y="-37.8151323" /><node id="3281070335" x="144.9788639" y="-37.8156007" /><node id="302123264" x="144.9681806" y="-37.7848783" /><node id="302123265" x="144.9672986" y="-37.7847939" /><node id="3318597898" x="144.9471378" y="-37.7892044" /><node id="3318597900" x="144.9490872" y="-37.7885902" /><node id="3318597902" x="144.9480687" y="-37.7889639" /><node id="1430915344" x="145.0147945" y="-37.7837294" /><node id="3318597905" x="144.9465775" y="-37.7893093" /><node id="3318597906" x="144.9476672" y="-37.78908" /><node id="1430915347" x="145.0143352" y="-37.7844044" /><node id="250038551" x="144.9019041" y="-37.8555087" /><node id="1430915359" x="145.0146785" y="-37.7836951" /><node id="286452003" x="144.9360319" y="-37.7888651" /><node id="1430915373" x="145.0144935" y="-37.7835496" /><node id="256723260" x="145.0037437" y="-37.781901" /><node id="1519470918" x="144.9932622" y="-37.7976237" /><node id="1519470931" x="144.9938022" y="-37.7948236" /><node id="242326587" x="144.9130193" y="-37.8330029" /><node id="5380278630" x="144.8984382" y="-37.8217798" /><node id="5380278631" x="144.8984213" y="-37.8218424" /><node id="1519470982" x="144.9938852" y="-37.7945605" /><node id="1519470986" x="144.9938278" y="-37.7947241" /><node id="1519470989" x="144.9936556" y="-37.7956096" /><node id="1140238748" x="145.0092689" y="-37.7881638" /><node id="1833134506" x="144.9513211" y="-37.7877016" /><node id="2368006574" x="144.9968634" y="-37.7843798" /><node id="1696033199" x="145.0053748" y="-37.7792533" /><node id="1696033201" x="145.0066028" y="-37.7792785" /><node id="4003572166" x="144.930285" y="-37.7911175" /><node id="4003572167" x="144.9296462" y="-37.7910718" /><node id="2299087305" x="144.984968" y="-37.8080464" /><node id="122705655" x="144.9548196" y="-37.8210424" /><node id="810953164" x="144.993338" y="-37.7971755" /><node id="443533779" x="144.9770139" y="-37.7825558" /><node id="579398336" x="144.9733504" y="-37.8175174" /><node id="258050528" x="145.0018051" y="-37.7823775" /><node id="1713449449" x="144.9834646" y="-37.8104455" /><node id="266078702" x="144.9957916" y="-37.7844888" /><node id="266078717" x="144.9953945" y="-37.7848717" /><node id="1449431467" x="144.97391" y="-37.8130608" /><node id="686095451" x="144.9891775" y="-37.7814526" /><node id="33239476" x="144.9680993" y="-37.7853747" /><node id="571730497" x="144.9507315" y="-37.822044" /><node id="571730499" x="144.9513674" y="-37.8218781" /><node id="571730500" x="144.9515536" y="-37.8218565" /><node id="448141068" x="144.9820889" y="-37.7904741" /><node id="571730515" x="144.9516155" y="-37.8218206" /><node id="571730517" x="144.951696" y="-37.8217616" /><node id="67701349" x="144.9259069" y="-37.7921958" /><node id="258050665" x="145.0013829" y="-37.7826737" /><node id="258050666" x="145.0014388" y="-37.782626" /><node id="258050667" x="145.0017112" y="-37.782628" /><node id="445680236" x="145.0084359" y="-37.7824822" /><node id="2212800277" x="144.9963039" y="-37.7831949" /><node id="571730561" x="144.9507771" y="-37.8220334" /><node id="591435542" x="144.9681756" y="-37.8186521" /><node id="230246167" x="144.9928828" y="-37.783696" /><node id="250038929" x="144.9022677" y="-37.8566374" /><node id="1715989148" x="144.9683478" y="-37.818645" /><node id="636881567" x="144.9648076" y="-37.8256659" /><node id="636881568" x="144.9646601" y="-37.8254583" /><node id="2438498992" x="144.9524347" y="-37.8272761" /><node id="2438498994" x="144.9446429" y="-37.8258318" /><node id="2438498996" x="144.9485729" y="-37.8264268" /><node id="2438498997" x="144.9529261" y="-37.8273853" /><node id="2438498999" x="144.950506" y="-37.8268468" /><node id="2438499000" x="144.9470971" y="-37.8261594" /><node id="4294470772" x="144.9776449" y="-37.7826212" /><node id="2438499002" x="144.9543622" y="-37.8277151" /><node id="579398332" x="144.971283" y="-37.8183618" /><node id="579398333" x="144.9713259" y="-37.8181584" /><node id="579398335" x="144.9727824" y="-37.817689" /><node id="2438499008" x="144.9514626" y="-37.8270645" /><node id="2438499009" x="144.9480786" y="-37.8263318" /><node id="2438499012" x="144.9456348" y="-37.8259484" /><node id="2438499015" x="144.9519413" y="-37.8271681" /><node id="2438499017" x="144.9495417" y="-37.8266307" /><node id="2438499018" x="144.9558246" y="-37.8280336" /><node id="2438499020" x="144.9466121" y="-37.8260809" /><node id="250038990" x="144.902434" y="-37.8574548" /><node id="67635925" x="144.9200152" y="-37.7944015" /><node id="2383211239" x="144.9675515" y="-37.8173557" /><node id="2383211240" x="144.9672473" y="-37.8174441" /><node id="443535827" x="144.9813386" y="-37.7830026" /><node id="1833110267" x="144.9680139" y="-37.8172189" /><node id="1833110268" x="144.9582187" y="-37.8200286" /><node id="1833110269" x="144.9650143" y="-37.8180945" /><node id="1833110274" x="144.9614422" y="-37.8191333" /><node id="1833110275" x="144.960084" y="-37.819498" /><node id="33239427" x="144.9857365" y="-37.7873604" /><node id="1833110277" x="144.9599034" y="-37.8195447" /><node id="1833110279" x="144.9660039" y="-37.8178063" /><node id="2692573961" x="144.9089226" y="-37.8019331" /><node id="1833110282" x="144.9630157" y="-37.8186767" /><node id="2692573963" x="144.9088939" y="-37.8020658" /><node id="1833110288" x="144.9623989" y="-37.8188564" /><node id="1833110294" x="144.9693154" y="-37.8168442" /><node id="338504473" x="144.9819059" y="-37.7915529" /><node id="338504474" x="144.9805786" y="-37.7914031" /><node id="338504475" x="144.98055" y="-37.7915322" /><node id="1833110301" x="144.9697926" y="-37.8167058" /><node id="1833110304" x="144.9590356" y="-37.8197944" /><node id="3313134377" x="144.9674523" y="-37.8173844" /><node id="3313134378" x="144.9673919" y="-37.8174026" /><node id="122727211" x="144.8996149" y="-37.8150144" /><node id="1833110318" x="144.9645541" y="-37.8182286" /><node id="443535837" x="144.9815544" y="-37.7830186" /><node id="3313134384" x="144.9671307" y="-37.8174781" /><node id="230787891" x="144.9786078" y="-37.7975413" /><node id="683082983" x="144.9224101" y="-37.8282234" /><node id="1350232902" x="144.9663975" y="-37.8229312" /><node id="1132071797" x="144.9954853" y="-37.7938716" /><node id="335620983" x="145.0001255" y="-37.7825382" /><node id="230787976" x="144.9789783" y="-37.7953573" /><node id="5400554384" x="144.8809046" y="-37.8264979" /><node id="266079128" x="144.995265" y="-37.7849965" /><node id="319933342" x="144.8720017" y="-37.8287511" /><node id="230788056" x="144.9790878" y="-37.7947121" /><node id="230362084" x="145.0021892" y="-37.7933377" /><node id="86674407" x="144.9361096" y="-37.78869" /><node id="361278491" x="144.9890414" y="-37.7858991" /><node id="361278501" x="144.9892099" y="-37.7858063" /><node id="448162855" x="144.9910965" y="-37.7834945" /><node id="230362154" x="144.999953" y="-37.7930726" /><node id="5551557682" x="145.018267" y="-37.783193" /><node id="258051128" x="145.0019284" y="-37.7816762" /><node id="4294470717" x="144.9774748" y="-37.7851785" /><node id="663497790" x="144.9736" y="-37.8155797" /><node id="2469612625" x="144.9055077" y="-37.8090487" /><node id="319710218" x="144.8624463" y="-37.8336139" /><node id="535030876" x="144.972762" y="-37.7846566" /><node id="53865567" x="144.9516492" y="-37.7877049" /><node id="846546790" x="144.9681729" y="-37.8187223" /><node id="53865576" x="144.9519931" y="-37.7877481" /><node id="249924716" x="144.9167966" y="-37.7951611" /><node id="249924717" x="144.9175691" y="-37.7952425" /><node id="3949661295" x="144.9848633" y="-37.7821086" /><node id="53865588" x="144.9527422" y="-37.7878942" /><node id="4294470773" x="144.9776845" y="-37.7826248" /><node id="4294470774" x="144.9771757" y="-37.7851447" /><node id="4294470775" x="144.977215" y="-37.7851491" /><node id="256699514" x="145.0036033" y="-37.7818836" /><node id="320477034" x="144.8728844" y="-37.8284085" /><node id="4782468222" x="144.8984953" y="-37.8214129" /><node id="2469612678" x="144.9059047" y="-37.8078726" /><node id="2031353418" x="144.9782472" y="-37.7852658" /><node id="279104682" x="145.0093291" y="-37.7868938" /><node id="147606699" x="144.9825926" y="-37.7847533" /><node id="279104685" x="145.0098532" y="-37.7868355" /><node id="279104686" x="145.0103861" y="-37.7867536" /><node id="279104687" x="145.0116207" y="-37.7865954" /><node id="279104688" x="145.0118233" y="-37.7865435" /><node id="279104689" x="145.0119349" y="-37.7864689" /><node id="279104690" x="145.0119263" y="-37.7863468" /><node id="279104691" x="145.0118748" y="-37.7861636" /><node id="279104692" x="145.0116688" y="-37.7857634" /><node id="279104693" x="145.0115807" y="-37.7856275" /><node id="279104694" x="145.0115796" y="-37.7855563" /><node id="3088665795" x="144.9820754" y="-37.7905664" /><node id="3088665799" x="144.9819458" y="-37.7913248" /><node id="53865676" x="144.9568839" y="-37.7891534" /><node id="1838361809" x="144.9674374" y="-37.8173887" /><node id="53865685" x="144.9571071" y="-37.7894678" /><node id="86691030" x="144.9315596" y="-37.7912805" /><node id="86691031" x="144.9316309" y="-37.7913436" /><node id="248130776" x="144.9028614" y="-37.8625926" /><node id="86691034" x="144.9314585" y="-37.7913216" /><node id="230362331" x="144.9982608" y="-37.7928614" /><node id="266079453" x="144.9950003" y="-37.7851562" /><node id="3318598881" x="144.9563555" y="-37.7887047" /><node id="3318598882" x="144.9571736" y="-37.7893449" /><node id="3318598883" x="144.9547784" y="-37.7881261" /><node id="3318598884" x="144.9557306" y="-37.7883704" /><node id="3318598885" x="144.9555165" y="-37.788289" /><node id="3318598886" x="144.9573017" y="-37.7892896" /><node id="3318598887" x="144.9542097" y="-37.7880561" /><node id="3318598888" x="144.9571038" y="-37.7893491" /><node id="3318598889" x="144.9553197" y="-37.7882288" /><node id="3419344106" x="144.975721" y="-37.8085113" /><node id="3318598891" x="144.9559505" y="-37.7884758" /><node id="3318598892" x="144.9570092" y="-37.7893149" /><node id="3318598893" x="144.9571972" y="-37.7895761" /><node id="3318598894" x="144.9567042" y="-37.7889739" /><node id="3318598895" x="144.9572825" y="-37.7896499" /><node id="3318598896" x="144.9550037" y="-37.7881642" /><node id="