<routes><vType accel="1.1" decel="5.2" id="Car0" length="23.8" maxSpeed="96" sigma="0.0" /><vType accel="0.9" decel="4.4" id="Car1" length="21.8" maxSpeed="76" sigma="0.0" /><vType accel="1.2" decel="4.6" id="Car2" length="10.2" maxSpeed="79" sigma="0.0" /><route edges="631477263_1691294369 1691294369_1888317278 1888317278_1793946448 1793946448_251443555 251443555_251444045 251444045_251848266 251848266_243962344 243962344_251443995 251443995_243962341 243962341_1430915347 1430915347_243962335 243962335_1440096617 1440096617_3380347999 3380347999_243962332 243962332_1440096616 1440096616_1440096629 1440096629_1440096628 1440096628_1440096635 1440096635_1440096640 1440096640_1440096641 1440096641_475473127 475473127_475473124 475473124_2625460363 2625460363_2625460364 2625460364_2625460365 2625460365_2625460366 2625460366_31286885 31286885_279104694 279104694_279104693 279104693_279104692 279104692_279104691 279104691_279104690 279104690_279104689 279104689_279104688 279104688_279104687 279104687_279104686 279104686_279104685 279104685_279104682 279104682_599267663 599267663_599267910 599267910_599267909 599267909_599267908 599267908_599267907 599267907_599267906 599267906_1140238748 1140238748_599267963 599267963_266076126 266076126_266076125 266076125_266076124 266076124_111328788 111328788_266076122 266076122_266076120 266076120_599267246 599267246_266076119 266076119_599267451 599267451_599267450 599267450_111328844 111328844_2273421229 2273421229_111328881 111328881_2273421230 2273421230_599267449 599267449_111328901 111328901_111328924 111328924_282152404 282152404_599267452 599267452_599267354 599267354_599267353 599267353_599267352 599267352_599267195 599267195_111328957 111328957_723797140 723797140_111328976 111328976_723799570 723799570_723799568 723799568_571770022 571770022_723799564 723799564_571770021 571770021_723799558 723799558_111328996 111328996_723799926 723799926_571784820 571784820_723802387 723802387_723802881 723802881_230362084 230362084_723803360 723803360_723803357 723803357_723803354 723803354_601307894 601307894_723803349 723803349_4674057364 4674057364_601307891 601307891_230362358 230362358_230362154 230362154_3816583490 3816583490_230362331 230362331_2174376437 2174376437_230362369 230362369_2337129975 2337129975_2337129969 2337129969_230362379 230362379_1132071797 1132071797_2337129972 2337129972_230382051 230382051_38778730 38778730_723825622 723825622_1519470982 1519470982_60019405 60019405_1519470986 1519470986_1519470931 1519470931_266076304 266076304_1519470989 1519470989_266725523 266725523_827528933 827528933_474534320 474534320_60019331 60019331_810953164 810953164_1519470918 1519470918_1965865396 1965865396_1965865389 1965865389_1965865392 1965865392_370959804 370959804_151434803 151434803_1965865387 1965865387_151434830 151434830_3311863660 3311863660_3311863659 3311863659_3311863658 3311863658_248969197 248969197_1519470760 1519470760_227324606 227324606_356474935 356474935_227324666 227324666_356474868 356474868_30287517 30287517_356474514 356474514_227324563 227324563_356474318 356474318_227324482 227324482_356474249 356474249_356474167 356474167_227324395 227324395_1404216321 1404216321_384012721 384012721_1596911748 1596911748_1404216317 1404216317_1596911747 1596911747_384012724 384012724_227324361 227324361_332127589 332127589_356478170 356478170_227315809 227315809_301549282 301549282_222976606 222976606_301548245 301548245_301548220 301548220_222975383 222975383_2299087305 2299087305_332152172 332152172_4936948366 4936948366_4936948369 4936948369_4936948368 4936948368_4936948367 4936948367_241807173 241807173_4283908130 4283908130_4283908132 4283908132_241807175 241807175_3281073171 3281073171_3146808114 3146808114_241807177 241807177_1713449449 1713449449_938091425 938091425_3862791980 3862791980_241807179 241807179_370751653 370751653_3862791979 3862791979_650276263 650276263_241807183 241807183_241807184 241807184_1879021170 1879021170_370750310 370750310_650269874 650269874_241807187 241807187_1517193200 1517193200_2302923329 2302923329_1449266733 1449266733_1449285277 1449285277_1449285290 1449285290_1449297318 1449297318_1449297315 1449297315_1449297343 1449297343_1449297341 1449297341_1449297306 1449297306_1449297335 1449297335_1449297320 1449297320_1449297327 1449297327_1449295066 1449295066_3281070335 3281070335_1449297326 1449297326_1449297319 1449297319_1449297301 1449297301_1449297324 1449297324_1449297336 1449297336_1449355160 1449355160_1449355138 1449355138_1449355162 1449355162_1449355145 1449355145_741702068 741702068_1449355158 1449355158_1449431589 1449431589_1449431623 1449431623_1449431263 1449431263_1449431533 1449431533_1449431504 1449431504_1449431574 1449431574_3882858133 3882858133_246076367 246076367_663497790 663497790_1449355163 1449355163_252588303 252588303_576877847 576877847_1449355165 1449355165_2173154655 2173154655_1985557938 1985557938_1833110301 1833110301_1525908946 1525908946_1833110294 1833110294_2774214269 2774214269_1833110267 1833110267_4329375111 4329375111_2383211239 2383211239_3313134377 3313134377_1838361809 1838361809_2187874243 2187874243_1833110298 1833110298_3313134378 3313134378_2383211240 2383211240_3313134384 3313134384_1964021893 1964021893_2384091392 2384091392_1833110279 1833110279_2384091393 2384091393_2384091394 2384091394_1833110269 1833110269_2384091395 2384091395_2165149751 2165149751_3394729660 3394729660_1833110318 1833110318_591430026 591430026_1833110282 1833110282_3954626857 3954626857_591426700 591426700_1833110288 1833110288_2325395502 2325395502_1833110274 1833110274_3945796019 3945796019_591411887 591411887_591408731 591408731_4520380551 4520380551_4520380552 4520380552_591408716 591408716_591415229 591415229_591408730 591408730_1833110275 1833110275_1833110277 1833110277_3394728756 3394728756_1833110304 1833110304_1833110268 1833110268_589501828 589501828_1479897558 1479897558_1479897577 1479897577_589501836 589501836_589500041 589500041_589502843 589502843_144720206 144720206_144720284 144720284_3945796023 3945796023_589708357 589708357_1479930110 1479930110_1479930094 1479930094_1479930096 1479930096_1479930075 1479930075_1479930080 1479930080_1479930102 1479930102_589742849 589742849_122705655 122705655_122705653 122705653_589747750 589747750_122705652 122705652_3954625845 3954625845_122705651 122705651_122705650 122705650_2202858914 2202858914_122705649 122705649_1833115725 1833115725_571730517 571730517_589759848 589759848_571730515 571730515_589763571 589763571_571730500 571730500_571730499 571730499_571730561 571730561_571730497 571730497_760180046 760180046_760180049 760180049_36823171 36823171_92137424 92137424_760180221 760180221_760180357 760180357_36823169 36823169_36823168 36823168_4017192797 4017192797_36823167 36823167_36823166 36823166_36823165 36823165_36823164 36823164_36823163 36823163_4017192795 4017192795_36823162 36823162_4017192796 4017192796_4017190011 4017190011_36823161 36823161_36823160 36823160_1883787497 1883787497_36824897 36824897_1883787524 1883787524_1883787542 1883787542_3863773230 3863773230_452352495 452352495_3863773226 3863773226_452360251 452360251_452360250 452360250_452355073 452355073_452355072 452355072_452355071 452355071_452355070 452355070_452355069 452355069_2941334795 2941334795_452355079 452355079_3285613595 3285613595_36818957 36818957_36818955 36818955_683097314 683097314_683097311 683097311_36818954 36818954_21578128 21578128_242399639 242399639_3910226774 3910226774_26476366 26476366_26476362 26476362_26476812 26476812_4316749791 4316749791_683095451 683095451_26476358 26476358_242328255 242328255_683095449 683095449_242328254 242328254_683082983 683082983_242328252 242328252_683083024 683083024_683083023 683083023_683083022 683083022_26476355 26476355_683086362 683086362_683086598 683086598_683086258 683086258_242328246 242328246_242328245 242328245_242327164 242327164_242327162 242327162_122716023 122716023_41678143 41678143_41678142 41678142_242326587 242326587_2080447171 2080447171_3319940275 3319940275_2080447173 2080447173_3319940273 3319940273_41678140 41678140_26476340 26476340_41677620 41677620_2080791960 2080791960_41677618 41677618_41677617 41677617_26476334 26476334_2080791971 2080791971_41677526 41677526_41677524 41677524_2080791977 2080791977_41677523 41677523_26476321 26476321_2080791975 2080791975_2080791006 2080791006_26476316 26476316_3200751429 3200751429_26476300 26476300_2080791003 2080791003_2080791335 2080791335_122714810 122714810_122714809 122714809_2080791334 2080791334_26476298 26476298_2080791336 2080791336_122714403 122714403_122714402 122714402_122714401 122714401_26476296 26476296_3074633688 3074633688_122716696 122716696_122822303 122822303_2080791007 2080791007_415860576 415860576_122822302 122822302_122822300 122822300_122822299 122822299_4864350301 4864350301_2081963682 2081963682_2081963686 2081963686_1833146775 1833146775_2951925533 2951925533_122718177 122718177_295871816 295871816_4273075065 4273075065_2951925540 2951925540_2951925537 2951925537_4428399217 4428399217_122820053 122820053_4273075066 4273075066_122718190 122718190_122823005 122823005_5400554384 5400554384_122718188 122718188_320477726 320477726_320477725 320477725_3950822288 3950822288_320477723 320477723_3950822289 3950822289_320477665 320477665_320477594 320477594_320477756 320477756_320477879 320477879_320476605 320476605_320478099 320478099_320476719 320476719_320478215 320478215_320476979 320476979_320478300 320478300_320477205 320477205_2103616479 2103616479_2103616478 2103616478_320477035 320477035_320477034 320477034_588141936 588141936_319934442 319934442_2103616493 2103616493_2103616486 2103616486_2103616490 2103616490_319932229 319932229_2103616484 2103616484_2103616485 2103616485_319934438 319934438_2103616481 2103616481_2103616491 2103616491_319934439 319934439_2103616480 2103616480_319934837 319934837_319934838 319934838_319933342 319933342_319934840 319934840_319933834 319933834_319936856 319936856_319936378 319936378_319936156 319936156_319936145 319936145_319705376 319705376_319935054 319935054_247848545 247848545_319710222 319710222_319710220 319710220_319710218 " id="route0" /><route edges="256708681_1436451818 1436451818_1691294363 1691294363_256702669 256702669_1696033201 1696033201_1696033199 1696033199_256702665 256702665_256705753 256705753_1691306777 1691306777_256699514 256699514_256700266 256700266_258051128 258051128_1436448639 1436448639_258050528 258050528_1436448634 1436448634_1436448640 1436448640_258050667 258050667_1436448626 1436448626_258050666 258050666_258050665 258050665_335620983 335620983_335620981 335620981_258051685 258051685_277328454 277328454_277328474 277328474_579370122 579370122_277328448 277328448_277328579 277328579_2212794607 2212794607_2212800277 2212800277_2212800279 2212800279_2212789815 2212789815_559301771 559301771_559301772 559301772_2794043493 2794043493_2794043494 2794043494_277328341 277328341_277328340 277328340_277328339 277328339_686125446 686125446_686125444 686125444_686125443 686125443_31286770 31286770_277328254 277328254_31286771 31286771_31286772 31286772_575536124 575536124_33572262 33572262_575536132 575536132_575529141 575529141_1598855531 1598855531_305542859 305542859_230246070 230246070_1598855538 1598855538_575529129 575529129_230246081 230246081_230246108 230246108_575536113 575536113_230246135 230246135_599266264 599266264_5254164662 5254164662_448162855 448162855_5254164654 5254164654_130175653 130175653_3109398455 3109398455_33531646 33531646_448143009 448143009_361278501 361278501_448143010 448143010_33531617 33531617_448143003 448143003_361278491 361278491_448143004 448143004_130175625 130175625_361279077 361279077_3126924761 3126924761_1835235068 1835235068_1835235065 1835235065_130175719 130175719_1835235071 1835235071_1835235076 1835235076_3126924766 3126924766_33239427 33239427_1714132469 1714132469_1714132504 1714132504_130175404 130175404_130175403 130175403_130175402 130175402_4060784618 4060784618_130175474 130175474_2495801414 2495801414_130175400 130175400_130175399 130175399_130175398 130175398_243445330 243445330_130175298 130175298_243074839 243074839_243074837 243074837_243074835 243074835_243074834 243074834_99555678 99555678_2204638257 2204638257_2204638255 2204638255_448141068 448141068_3088665795 3088665795_99557477 99557477_3088665799 3088665799_338504473 338504473_448141056 448141056_338504474 338504474_338504475 338504475_4060768432 4060768432_448141093 448141093_448141091 448141091_628756193 628756193_628756190 628756190_2204643290 2204643290_448141084 448141084_130175246 130175246_2097635076 2097635076_3949536064 3949536064_33239385 33239385_3949536066 3949536066_3949536067 3949536067_30287463 30287463_3949536071 3949536071_230789030 230789030_230788056 230788056_230787976 230787976_3949699690 3949699690_230784810 230784810_30287473 30287473_230787891 230787891_31477168 31477168_233274958 233274958_30287469 30287469_30287459 30287459_30287471 30287471_233262544 233262544_233262696 233262696_233314946 233314946_233314999 233314999_243645169 243645169_233314776 233314776_4297530208 4297530208_30287464 30287464_4297530214 4297530214_2189358901 2189358901_2189358929 2189358929_2318333325 2318333325_2189358931 2189358931_4283908114 4283908114_3419344114 3419344114_2189377529 2189377529_3419344105 3419344105_2189377523 2189377523_30945324 30945324_2189377526 2189377526_5290706359 5290706359_2189377514 2189377514_2189377513 2189377513_2189377511 2189377511_3419344106 3419344106_2189398724 2189398724_2189398745 2189398745_3419354766 3419354766_2189398719 2189398719_4283908160 4283908160_2317966814 2317966814_2189398722 2189398722_268533993 268533993_268533990 268533990_2227263908 2227263908_4283908889 4283908889_2279153648 2279153648_2279169115 2279169115_2279153650 2279153650_4283908893 4283908893_2279153645 2279153645_1449431432 1449431432_4283908898 4283908898_1449431467 1449431467_1449431613 1449431613_1449431232 1449431232_1449431476 1449431476_4148228281 4148228281_4148228282 4148228282_1449431342 1449431342_1449431597 1449431597_1449431584 1449431584_1449431215 1449431215_1449431492 1449431492_1449431544 1449431544_1449431388 1449431388_1449431494 1449431494_1449431580 1449431580_1449431423 1449431423_1449431336 1449431336_1449431417 1449431417_1449431504 1449431504_1449431574 1449431574_3882858133 3882858133_246076367 246076367_663497790 663497790_1449355163 1449355163_252588303 252588303_576877847 576877847_1449431218 1449431218_1449431579 1449431579_576877857 576877857_582800718 582800718_582800719 582800719_576878131 576878131_266736971 266736971_576877115 576877115_266736972 266736972_266736973 266736973_576877116 576877116_266736974 266736974_576877117 576877117_266736975 266736975_266736976 266736976_283530679 283530679_579398336 579398336_5402876165 5402876165_579398335 579398335_579398333 579398333_579398332 579398332_266737144 266737144_846570505 846570505_846570506 846570506_3494348621 3494348621_846570962 846570962_60096861 60096861_846571483 846571483_1715989148 1715989148_591435542 591435542_846570246 846570246_846546790 846546790_2705184149 2705184149_2705184150 2705184150_828414268 828414268_846546859 846546859_846546860 846546860_736011451 736011451_846546861 846546861_991978006 991978006_469736808 469736808_579408576 579408576_469736810 469736810_469736812 469736812_469736814 469736814_469736816 469736816_469736818 469736818_847533612 847533612_847533611 847533611_847533610 847533610_847533609 847533609_847533608 847533608_847533607 847533607_847533606 847533606_847532415 847532415_847532414 847532414_664380096 664380096_847532210 847532210_847532233 847532233_3938525751 3938525751_3938525752 3938525752_369109134 369109134_369109139 369109139_298045614 298045614_298045612 298045612_1350232902 1350232902_2165149174 2165149174_847527932 847527932_3296128761 3296128761_243097134 243097134_298045598 298045598_298045582 298045582_298045595 298045595_298045597 298045597_36822610 36822610_36822609 36822609_636881568 636881568_36822608 36822608_636881567 636881567_36822607 36822607_636883618 636883618_36822606 36822606_636884000 636884000_36822605 36822605_5050099473 5050099473_636883990 636883990_36822604 36822604_2438502741 2438502741_36822603 36822603_2438502743 2438502743_636884007 636884007_36822602 36822602_36822601 36822601_36818765 36818765_794252828 794252828_36818762 36818762_36818761 36818761_36818760 36818760_36818759 36818759_636892863 636892863_636892856 636892856_636892852 636892852_4967019134 4967019134_36818756 36818756_636892847 636892847_2438499018 2438499018_36818755 36818755_2438499002 2438499002_36818752 36818752_2438498997 2438498997_2438498992 2438498992_2438499015 2438499015_3285607263 3285607263_2438499008 2438499008_36818751 36818751_2438498999 2438498999_36818750 36818750_2438499017 2438499017_36818749 36818749_2438498996 2438498996_2438499009 2438499009_36818748 36818748_2438499000 2438499000_2438499020 2438499020_36818746 36818746_2438499012 2438499012_36818745 36818745_2438498994 2438498994_36818744 36818744_36818961 36818961_36818960 36818960_36818959 36818959_3285605482 3285605482_36818958 36818958_3293329354 3293329354_36818957 36818957_36818955 36818955_683097314 683097314_683097311 683097311_36818954 36818954_21578128 21578128_242399639 242399639_3910226774 3910226774_26476366 26476366_26476362 26476362_26476812 26476812_4316749791 4316749791_683095451 683095451_26476358 26476358_242328255 242328255_683095449 683095449_242328254 242328254_683082983 683082983_242328252 242328252_683083024 683083024_683083023 683083023_683083022 683083022_26476355 26476355_683086362 683086362_683086598 683086598_683086258 683086258_242328246 242328246_242328245 242328245_242327164 242327164_242327162 242327162_122716023 122716023_41678143 41678143_41678142 41678142_242326587 242326587_2080447171 2080447171_3319940275 3319940275_2080447173 2080447173_3319940273 3319940273_41678140 41678140_26476340 26476340_41677620 41677620_2080791960 2080791960_41677618 41677618_41677617 41677617_26476334 26476334_2080791971 2080791971_41677526 41677526_41677524 41677524_2080791977 2080791977_41677523 41677523_26476321 26476321_2080791975 2080791975_2080791006 2080791006_26476316 26476316_3200751429 3200751429_26476300 26476300_2080791003 2080791003_2080791335 2080791335_122714810 122714810_122714809 122714809_2080791334 2080791334_26476298 26476298_2080791336 2080791336_122714403 122714403_122714402 122714402_122714401 122714401_26476296 26476296_3074633688 3074633688_122716696 122716696_122822303 122822303_2080791007 2080791007_415860576 415860576_122822302 122822302_122822300 122822300_122822299 122822299_4864350301 4864350301_2081963682 2081963682_2081963686 2081963686_1833146775 1833146775_2951925533 2951925533_122718177 122718177_295871816 295871816_4273075065 4273075065_2951925540 2951925540_2951925537 2951925537_4428399217 4428399217_122820053 122820053_4273075066 4273075066_122718190 122718190_122823005 122823005_5400554384 5400554384_122718188 122718188_320477726 320477726_320477725 320477725_3950822288 3950822288_320477723 320477723_3950822289 3950822289_320477665 320477665_320477594 320477594_320477756 320477756_320477879 320477879_320476605 320476605_320478099 320478099_320476719 320476719_320478215 320478215_320476979 320476979_320478300 320478300_320477205 320477205_2103616479 2103616479_2103616478 2103616478_320477035 320477035_320477034 320477034_588141936 588141936_319934442 319934442_2103616493 2103616493_2103616486 2103616486_2103616490 2103616490_319932229 319932229_2103616484 2103616484_2103616485 2103616485_319934438 319934438_2103616481 2103616481_2103616491 2103616491_319934439 319934439_2103616480 2103616480_319934837 319934837_319934838 319934838_319933342 319933342_319934840 319934840_319933834 319933834_319936856 319936856_319936378 319936378_319936156 319936156_319932465 319932465_319935054 319935054_247848545 247848545_319710222 319710222_319710220 319710220_319710218 " id="route1" /><route edges="631477263_1691294369 1691294369_1888317278 1888317278_1793946448 1793946448_1691294370 1691294370_348227834 348227834_251444046 251444046_5551557682 5551557682_599433839 599433839_251443994 251443994_266086359 266086359_266086358 266086358_266086357 266086357_5551556066 5551556066_266086356 266086356_266086355 266086355_266086354 266086354_1430915344 1430915344_1430915359 1430915359_1430915256 1430915256_1430915373 1430915373_266086346 266086346_127357121 127357121_127357120 127357120_127357117 127357117_256713284 256713284_256709465 256709465_256709453 256709453_256709370 256709370_256709336 256709336_448796212 448796212_246938157 246938157_445680236 445680236_448796211 448796211_256709306 256709306_256700853 256700853_256708619 256708619_1436448659 1436448659_256700478 256700478_256723260 256723260_256699514 256699514_256700266 256700266_258051128 258051128_1436448639 1436448639_258050528 258050528_1436448634 1436448634_1436448640 1436448640_258050667 258050667_1436448626 1436448626_258050666 258050666_258050665 258050665_335620983 335620983_335620981 335620981_258051685 258051685_2808854960 2808854960_559301795 559301795_2808854973 2808854973_2808854971 2808854971_2808854972 2808854972_2808854976 2808854976_3187857298 3187857298_3187857299 3187857299_3187857300 3187857300_2808854975 2808854975_277328636 277328636_2808854970 2808854970_2368006574 2368006574_277328578 277328578_1435070804 1435070804_4307007242 4307007242_4307007241 4307007241_2212789806 2212789806_4307007244 4307007244_266078702 266078702_266078717 266078717_266079128 266079128_4307007247 4307007247_2430775432 2430775432_266079453 266079453_1832840604 1832840604_575529138 575529138_575529137 575529137_575529136 575529136_230246167 230246167_230246081 230246081_230246108 230246108_575536113 575536113_230246135 230246135_599266264 599266264_5254164662 5254164662_448149733 448149733_2088141648 2088141648_3109398453 3109398453_1942338562 1942338562_5255102038 5255102038_3109398454 3109398454_130175808 130175808_1835235063 1835235063_244859445 244859445_2706937447 2706937447_2706937451 2706937451_2706937449 2706937449_448176511 448176511_244857759 244857759_2104032787 2104032787_244858288 244858288_227786853 227786853_227786879 227786879_33568808 33568808_4307006947 4307006947_244856186 244856186_4307006946 4307006946_4307007239 4307007239_33531628 33531628_147659681 147659681_147660223 147660223_147606699 147606699_243645176 243645176_750763528 750763528_4307007254 4307007254_2204477276 2204477276_2031349495 2031349495_4307006951 4307006951_145268763 145268763_4307006950 4307006950_147603677 147603677_750743354 750743354_493334520 493334520_750763778 750763778_750763775 750763775_750763772 750763772_493334535 493334535_750763769 750763769_750763768 750763768_750763767 750763767_750763766 750763766_145268764 145268764_2456409737 2456409737_4060743921 4060743921_2031353418 2031353418_2031353431 2031353431_4294470717 4294470717_2199414688 2199414688_4294470775 4294470775_4294470774 4294470774_2199414701 2199414701_2199405008 2199405008_1296964145 1296964145_1296964137 1296964137_1296964157 1296964157_1296964158 1296964158_1296964150 1296964150_1296964152 1296964152_1296964162 1296964162_1296963642 1296963642_1296963670 1296963670_1296963664 1296963664_1296963640 1296963640_1296963675 1296963675_1296963658 1296963658_1296963692 1296963692_1296963651 1296963651_1296963669 1296963669_1296963679 1296963679_1296963672 1296963672_1296963644 1296963644_1296963671 1296963671_1296963678 1296963678_1296963690 1296963690_1296963645 1296963645_1297046466 1297046466_1297046368 1297046368_1296963646 1296963646_1296963661 1296963661_1287463804 1287463804_33448421 33448421_33239476 33239476_1294040347 1294040347_55108601 55108601_33448406 33448406_33448386 33448386_244549079 244549079_2815000040 2815000040_33123893 33123893_1294040340 1294040340_1294040396 1294040396_33123892 33123892_33123891 33123891_33123890 33123890_1294040360 1294040360_33123889 33123889_33240669 33240669_2395733186 2395733186_2395733188 2395733188_33240668 33240668_2395733187 2395733187_3221110918 3221110918_3221110919 3221110919_3221110920 3221110920_3221110921 3221110921_3221110922 3221110922_53865740 53865740_2209383418 2209383418_4326397441 4326397441_4326397440 4326397440_2209383462 2209383462_53865717 53865717_3374126181 3374126181_457840492 457840492_32193504 32193504_33240730 33240730_3318598886 3318598886_3318598882 3318598882_3318598888 3318598888_3318598892 3318598892_53865676 53865676_3318598894 3318598894_3318598890 3318598890_3318598881 3318598881_3318598897 3318598897_3318598891 3318598891_3318598884 3318598884_3318598885 3318598885_3318598889 3318598889_3318598896 3318598896_3318598883 3318598883_3318598887 3318598887_53865588 53865588_525355257 525355257_53865576 53865576_53865567 53865567_1833134506 1833134506_53246139 53246139_53246135 53246135_53246131 53246131_53246129 53246129_33574566 33574566_1280017714 1280017714_1280017765 1280017765_1280017896 1280017896_3318597900 3318597900_53246113 53246113_3318597902 3318597902_3318597906 3318597906_3318597898 3318597898_53246108 53246108_3318597905 3318597905_53246105 53246105_53246100 53246100_53246122 53246122_53246104 53246104_2105473998 2105473998_2105473991 2105473991_2105473994 2105473994_86656050 86656050_2105473993 2105473993_2105470562 2105470562_86658354 86658354_2105470583 2105470583_4460254035 4460254035_4460254034 4460254034_2105470559 2105470559_2105449021 2105449021_3873155060 3873155060_127627640 127627640_1316062834 1316062834_373069361 373069361_1316062877 1316062877_251084139 251084139_1316038621 1316038621_1133260588 1133260588_86662136 86662136_962313585 962313585_4889398639 4889398639_1315978746 1315978746_280918826 280918826_86674407 86674407_280920274 280920274_286452003 286452003_280920081 280920081_280920096 280920096_280920039 280920039_86685830 86685830_86686545 86686545_86687446 86687446_86687656 86687656_86710740 86710740_86691031 86691031_3162726475 3162726475_493879109 493879109_3162726477 3162726477_86691030 86691030_3162726473 3162726473_3162726479 3162726479_493879097 493879097_86691034 86691034_92242202 92242202_86688443 86688443_92242361 92242361_86688712 86688712_4003572166 4003572166_1096243313 1096243313_949544886 949544886_949544867 949544867_1096243297 1096243297_4003572167 4003572167_67804747 67804747_67804740 67804740_67762203 67762203_279249331 279249331_67762204 67762204_67804723 67804723_67804724 67804724_67804725 67804725_67804726 67804726_67804727 67804727_67804728 67804728_67804730 67804730_67804721 67804721_67804779 67804779_67701349 67701349_3235486775 3235486775_3235486776 3235486776_3235486779 3235486779_67702564 67702564_3235486782 3235486782_67698911 67698911_67698776 67698776_3235486806 3235486806_67677736 67677736_249919639 249919639_249920987 249920987_67635925 67635925_249921432 249921432_5404645671 5404645671_26680226 26680226_3235486821 3235486821_3235486822 3235486822_249924717 249924717_249924716 249924716_2602459356 2602459356_3853718231 3853718231_35726534 35726534_67629512 67629512_35726548 35726548_35726549 35726549_35726550 35726550_35726551 35726551_35726552 35726552_583184479 583184479_583184648 583184648_583184647 583184647_583184646 583184646_583184645 583184645_583184644 583184644_583184643 583184643_583184642 583184642_583184641 583184641_583184640 583184640_583184639 583184639_583184638 583184638_583184636 583184636_583184634 583184634_583184632 583184632_583184630 583184630_583184629 583184629_583184628 583184628_583184627 583184627_583184626 583184626_583184625 583184625_583184624 583184624_583184623 583184623_583184622 583184622_583184621 583184621_583184620 583184620_583184619 583184619_583184618 583184618_583184617 583184617_583184616 583184616_583184615 583184615_583184614 583184614_583184613 583184613_583184612 583184612_583184611 583184611_583184610 583184610_583184609 583184609_583184608 583184608_583184607 583184607_583184606 583184606_583184605 583184605_583184604 583184604_583184603 583184603_583184602 583184602_583184597 583184597_583184593 583184593_583184590 583184590_583184587 583184587_583184582 583184582_583184579 583184579_583184576 583184576_583184565 583184565_583184562 583184562_583184556 583184556_583184548 583184548_583184543 583184543_583184538 583184538_583184537 583184537_583184536 583184536_583184533 583184533_583184531 583184531_583184527 583184527_583184524 583184524_583184519 583184519_583184513 583184513_583184507 583184507_583184506 583184506_583184505 583184505_583184504 583184504_583184503 583184503_583184502 583184502_583184501 583184501_583184500 583184500_583184499 583184499_583184498 583184498_583184497 583184497_583184496 583184496_583184495 583184495_583184494 583184494_583184493 583184493_583184492 583184492_583184491 583184491_583184490 583184490_583184489 583184489_583184488 583184488_583184487 583184487_583184486 583184486_583184485 583184485_583184484 583184484_583184402 583184402_583184483 583184483_583184482 583184482_583184481 583184481_2692573961 2692573961_2692573962 2692573962_2692573963 2692573963_583184231 583184231_583185510 583185510_583185509 583185509_583185508 583185508_583185507 583185507_583185506 583185506_583185505 583185505_583185504 583185504_583185503 583185503_583185502 583185502_583185501 583185501_583185500 583185500_583185499 583185499_825445648 825445648_825446278 825446278_583185497 583185497_583185496 583185496_583185495 583185495_583185451 583185451_583185494 583185494_583185492 583185492_583189536 583189536_2469612678 2469612678_2469612625 2469612625_583186868 583186868_4793613048 4793613048_583186867 583186867_583188038 583188038_583185923 583185923_583187147 583187147_583185523 583185523_583187050 583187050_583186811 583186811_1725233607 1725233607_583185524 583185524_2142166068 2142166068_122727211 122727211_122725511 122725511_2097584295 2097584295_5033687753 5033687753_4752115386 4752115386_4752128232 4752128232_2097585146 2097585146_2097585148 2097585148_2097585147 