<routes><vType accel="2.7" decel="4.8" id="Car0" length="22.8" maxSpeed="115" sigma="0.0" /><vType accel="2.7" decel="5.4" id="Car1" length="23.1" maxSpeed="102" sigma="0.0" /><vType accel="2.0" decel="4.4" id="Car2" length="16.7" maxSpeed="96" sigma="0.0" /><route edges="631477263_1691294369 1691294369_1888317278 1888317278_1793946448 1793946448_251443555 251443555_251444045 251444045_251848266 251848266_243962344 243962344_251443995 251443995_243962341 243962341_1430915347 1430915347_243962335 243962335_1440096617 1440096617_3380347999 3380347999_243962332 243962332_1440096616 1440096616_1440096629 1440096629_1440096614 1440096614_1440096637 1440096637_243962329 243962329_1440096633 1440096633_243962326 243962326_1440096631 1440096631_243962323 243962323_1440096634 1440096634_243962318 243962318_479783451 479783451_4674069696 4674069696_479783442 479783442_479783412 479783412_479783417 479783417_2625460169 2625460169_479783424 479783424_1440096622 1440096622_3781562089 3781562089_3781562083 3781562083_3781562087 3781562087_3781562093 3781562093_3781562092 3781562092_3781562091 3781562091_3781562084 3781562084_3781562086 3781562086_3781562090 3781562090_3781562085 3781562085_1389508658 1389508658_4605264194 4605264194_127715644 127715644_4605264193 4605264193_599267924 599267924_599267918 599267918_599267919 599267919_599267920 599267920_599267921 599267921_599267922 599267922_599267923 599267923_599267889 599267889_279095452 279095452_279095451 279095451_279095450 279095450_279095449 279095449_279095448 279095448_279095447 279095447_279095446 279095446_279095445 279095445_279095429 279095429_3373078241 3373078241_1374354442 1374354442_279095428 279095428_279095443 279095443_279095442 279095442_279095441 279095441_723762616 723762616_723762613 723762613_31286868 31286868_723762023 723762023_31286867 31286867_723762019 723762019_571803229 571803229_723762017 723762017_723762016 723762016_723762014 723762014_723760934 723760934_571803232 571803232_31286865 31286865_599266886 599266886_599266883 599266883_31286862 31286862_723760196 723760196_723760190 723760190_723760185 723760185_723760180 723760180_723760151 723760151_723760144 723760144_723760138 723760138_723760132 723760132_723760128 723760128_723760122 723760122_723760117 723760117_723760113 723760113_723760108 723760108_31286848 31286848_31286842 31286842_723759288 723759288_723759286 723759286_31286835 31286835_723758728 723758728_723759278 723759278_31286829 31286829_31286821 31286821_258051684 258051684_335620981 335620981_258051685 258051685_2808854960 2808854960_559301795 559301795_2808854973 2808854973_2808854971 2808854971_2808854972 2808854972_2808854976 2808854976_3187857298 3187857298_3187857299 3187857299_3187857300 3187857300_2808854975 2808854975_277328636 277328636_2808854970 2808854970_2368006574 2368006574_277328578 277328578_1435070804 1435070804_4307007242 4307007242_4307007241 4307007241_2212789806 2212789806_4307007244 4307007244_266078702 266078702_266078717 266078717_266079128 266079128_4307007247 4307007247_2430775432 2430775432_266079453 266079453_1832840604 1832840604_575529138 575529138_575529137 575529137_575529136 575529136_230246167 230246167_230246081 230246081_230246108 230246108_575536113 575536113_230246135 230246135_599266264 599266264_5254164662 5254164662_448149733 448149733_2088141648 2088141648_3109398453 3109398453_1942338562 1942338562_5255102038 5255102038_3109398454 3109398454_130175808 130175808_1835235063 1835235063_244859445 244859445_2706937424 2706937424_2706937435 2706937435_2706937425 2706937425_2706937456 2706937456_2706937438 2706937438_2706937423 2706937423_1835235058 1835235058_1835235056 1835235056_2706937421 2706937421_2706937437 2706937437_33531626 33531626_448174320 448174320_2104032791 2104032791_227786879 227786879_33568808 33568808_4307006947 4307006947_244856186 244856186_4307006946 4307006946_4307007239 4307007239_33531628 33531628_147659681 147659681_147660223 147660223_147606699 147606699_243645176 243645176_750763528 750763528_4307007254 4307007254_2204477276 2204477276_2031349495 2031349495_4307006951 4307006951_145268763 145268763_4307006950 4307006950_147603677 147603677_750743354 750743354_493334520 493334520_750763778 750763778_750763775 750763775_750763772 750763772_493334535 493334535_750763769 750763769_750763768 750763768_750763767 750763767_750763766 750763766_145268764 145268764_2456409737 2456409737_4060743921 4060743921_2031353418 2031353418_2031353431 2031353431_4294470717 4294470717_2199414688 2199414688_4294470775 4294470775_4294470774 4294470774_2199414701 2199414701_4294470716 4294470716_222421171 222421171_2200565864 2200565864_459518322 459518322_459518343 459518343_459518342 459518342_459518341 459518341_459518323 459518323_459518340 459518340_459518339 459518339_459518338 459518338_99507332 99507332_223078097 223078097_33238905 33238905_34165423 34165423_249216678 249216678_1296963666 1296963666_1296963659 1296963659_1296963687 1296963687_1296963674 1296963674_1296963683 1296963683_1296963654 1296963654_1296963676 1296963676_1296963636 1296963636_1296963652 1296963652_1296963680 1296963680_1296963655 1296963655_1296963681 1296963681_223158212 223158212_223100437 223100437_535030876 535030876_34160614 34160614_249216706 249216706_33567659 33567659_33567667 33567667_249216561 249216561_249216527 249216527_249216525 249216525_1287463841 1287463841_1297046462 1297046462_1297046484 1297046484_1297046419 1297046419_1297046385 1297046385_1297046470 1297046470_1297046463 1297046463_1287463882 1287463882_1297046441 1297046441_33448422 33448422_302123263 302123263_302123264 302123264_1294040354 1294040354_302123265 302123265_55108601 55108601_33448406 33448406_33448386 33448386_244549079 244549079_2815000040 2815000040_33123893 33123893_1294040340 1294040340_1294040396 1294040396_33123892 33123892_33123891 33123891_33123890 33123890_1294040360 1294040360_33123889 33123889_33240669 33240669_2395733186 2395733186_2395733188 2395733188_33240668 33240668_2395733187 2395733187_3221110918 3221110918_3221110919 3221110919_3221110920 3221110920_3221110921 3221110921_3221110922 3221110922_53865740 53865740_2209383418 2209383418_4326397441 4326397441_4326397440 4326397440_2209383462 2209383462_53865717 53865717_3374126181 3374126181_457840492 457840492_32193504 32193504_3318598895 3318598895_3318598893 3318598893_53865685 53865685_3318598892 3318598892_53865676 53865676_3318598894 3318598894_3318598890 3318598890_3318598881 3318598881_3318598897 3318598897_3318598891 3318598891_3318598884 3318598884_3318598885 3318598885_3318598889 3318598889_3318598896 3318598896_3318598883 3318598883_3318598887 3318598887_53865588 53865588_525355257 525355257_53865576 53865576_53865567 53865567_1833134506 1833134506_53246139 53246139_53246135 53246135_53246131 53246131_53246129 53246129_33574566 33574566_1280017714 1280017714_1280017765 1280017765_1280017896 1280017896_3318597900 3318597900_53246113 53246113_3318597902 3318597902_3318597906 3318597906_3318597898 3318597898_53246108 53246108_3318597905 3318597905_53246105 53246105_53246100 53246100_53246122 53246122_53246104 53246104_2105473998 2105473998_2105473991 2105473991_2105473994 2105473994_86656050 86656050_2105473993 2105473993_2105470562 2105470562_86658354 86658354_2105470583 2105470583_4460254035 4460254035_4460254034 4460254034_2105470559 2105470559_2105449021 2105449021_3873155060 3873155060_127627640 127627640_1316062834 1316062834_373069361 373069361_1316062877 1316062877_251084139 251084139_1316038621 1316038621_1133260588 1133260588_86662136 86662136_962313585 962313585_4889398639 4889398639_1315978746 1315978746_280918826 280918826_86674407 86674407_86666203 86666203_86667088 86667088_4795977695 4795977695_2227463895 2227463895_2227463871 2227463871_2227463891 2227463891_2227463855 2227463855_4457663259 4457663259_2226656891 2226656891_253768065 253768065_4457663260 4457663260_373067769 373067769_373067755 373067755_3047691070 3047691070_4457663248 4457663248_3047691071 3047691071_4003572168 4003572168_1096241530 1096241530_1096241492 1096241492_1096241493 1096241493_1096241494 1096241494_1096241495 1096241495_2484734226 2484734226_2484734227 2484734227_1072501002 1072501002_1072501004 1072501004_1072501000 1072501000_1072500950 1072500950_1072501043 1072501043_1072501057 1072501057_1072501059 1072501059_67755820 67755820_67760981 67760981_67760984 67760984_2450172983 2450172983_2484730867 2484730867_67816409 67816409_1573773308 1573773308_67816410 67816410_250045894 250045894_250045893 250045893_2726414543 2726414543_250045892 250045892_250045890 250045890_2484730870 2484730870_279108283 279108283_67709252 67709252_2302316250 2302316250_1106095132 1106095132_1106095130 1106095130_2302316251 2302316251_5404645698 5404645698_5404645696 5404645696_1999701130 1999701130_2484730871 2484730871_2726414540 2726414540_2726414542 2726414542_2302267392 2302267392_2302267394 2302267394_2484730866 2484730866_1999701129 1999701129_1999701128 1999701128_3019501896 3019501896_1999701127 1999701127_2484730868 2484730868_5404645671 5404645671_26680226 26680226_3235486821 3235486821_3235486822 3235486822_249924717 249924717_249924716 249924716_2602459356 2602459356_3853718231 3853718231_35726534 35726534_67629512 67629512_35726548 35726548_35726549 35726549_35726550 35726550_35726551 35726551_35726552 35726552_583184479 583184479_583184648 583184648_583184647 583184647_583184646 583184646_583184645 583184645_583184644 583184644_583184643 583184643_583184642 583184642_583184641 583184641_583184640 583184640_583184639 583184639_583184638 583184638_583184636 583184636_583184634 583184634_583184632 583184632_583184630 583184630_583184629 583184629_583184628 583184628_583184627 583184627_583184626 583184626_583184625 583184625_583184624 583184624_583184623 583184623_583184622 583184622_583184621 583184621_583184620 583184620_583184619 583184619_583184618 583184618_583184617 583184617_583184616 583184616_583184615 583184615_583184614 583184614_583184613 583184613_583184612 583184612_583184611 583184611_583184610 583184610_583184609 583184609_583184608 583184608_583184607 583184607_583184606 583184606_583184605 583184605_583184604 583184604_583184603 583184603_583184602 583184602_583184597 583184597_583184593 583184593_583184590 583184590_583184587 583184587_583184582 583184582_583184579 583184579_583184576 583184576_583184565 583184565_583184562 583184562_583184556 583184556_583184548 583184548_583184543 583184543_583184538 583184538_583184537 583184537_583184536 583184536_583184533 583184533_583184531 583184531_583184527 583184527_583184524 583184524_583184519 583184519_583184513 583184513_583184507 583184507_583184506 583184506_583184505 583184505_583184504 583184504_583184503 583184503_583184502 583184502_583184501 583184501_583184500 583184500_583184499 583184499_583184498 583184498_583184497 583184497_583184496 583184496_583184495 583184495_583184494 583184494_583184493 583184493_583184492 583184492_583184491 583184491_583184490 583184490_583184489 583184489_583184488 583184488_583184487 583184487_583184486 583184486_583184485 583184485_583184484 583184484_583184402 583184402_583184483 583184483_583184482 583184482_583184481 583184481_2692573961 2692573961_2692573962 2692573962_2692573963 2692573963_583184231 583184231_583185510 583185510_583185509 583185509_583185508 583185508_583185507 583185507_583185506 583185506_583185505 583185505_583185504 583185504_583185503 583185503_583185502 583185502_583185501 583185501_583185500 583185500_583185499 583185499_825445648 825445648_825446278 825446278_583185497 583185497_583185496 583185496_583185495 583185495_583185451 583185451_583185494 583185494_583185492 583185492_583185490 583185490_583185488 583185488_583185487 583185487_583185485 583185485_583185483 583185483_583185482 583185482_583185481 583185481_583185480 583185480_583185452 583185452_583185479 583185479_583185478 583185478_583185477 583185477_583185476 583185476_583185475 583185475_583185474 583185474_583185473 583185473_583185472 583185472_583185471 583185471_583185469 583185469_583185453 583185453_583185930 583185930_583185928 583185928_583185926 583185926_583185924 583185924_583185923 583185923_583187147 583187147_583185523 583185523_583187050 583187050_583186811 583186811_1725233607 1725233607_583185524 583185524_2142166068 2142166068_122727211 122727211_122725511 122725511_2097584295 2097584295_5033687753 5033687753_4752115386 4752115386_4752128232 4752128232_2097585146 2097585146_2097585148 2097585148_2097585147 2097585147_1040577862 1040577862_4785338275 4785338275_370708625 370708625_250042576 250042576_1473826443 1473826443_4782468222 4782468222_5380278630 5380278630_5380278631 5380278631_4777848126 4777848126_1833150216 1833150216_2097584296 2097584296_1833150219 1833150219_1833150214 1833150214_583185642 583185642_5404620563 5404620563_5404620568 5404620568_583185882 583185882_583185880 583185880_4681213299 4681213299_583185874 583185874_583185933 583185933_3219517596 3219517596_3074633700 3074633700_3910223806 3910223806_3910223796 3910223796_3910223790 3910223790_3910223797 3910223797_3074633687 3074633687_4793613518 4793613518_1833149615 1833149615_2097608943 2097608943_250012682 250012682_250014458 250014458_247297388 247297388_4435491629 4435491629_3973058506 3973058506_1833149617 1833149617_3973058511 3973058511_3973058512 3973058512_3973058500 3973058500_4999073425 4999073425_3973058508 3973058508_4999073426 4999073426_3973058499 3973058499_1570377978 1570377978_1570377983 1570377983_1570377991 1570377991_1570377981 1570377981_250015302 250015302_250015012 250015012_3973065565 3973065565_250016011 250016011_3973065564 3973065564_250017211 250017211_250017492 250017492_250016203 250016203_4785428939 4785428939_250016204 250016204_4963397771 4963397771_250016205 250016205_581227455 581227455_250016206 250016206_320474840 320474840_4813096695 4813096695_320474731 320474731_320475355 320475355_320474998 320474998_320474719 320474719_320476087 320476087_320477440 320477440_320477441 320477441_320477340 320477340_320477442 320477442_320477443 320477443_1407986892 1407986892_1407986894 1407986894_1407986893 1407986893_1407986895 1407986895_1407986896 1407986896_1407986897 1407986897_1407986891 1407986891_319931897 319931897_319932372 319932372_319932754 319932754_319933160 319933160_319933340 319933340_319933638 319933638_319933374 319933374_319933735 319933735_319705751 319705751_319936549 319936549_319705696 319705696_319936145 319936145_319705376 319705376_319935054 319935054_247848545 247848545_319710222 319710222_319710220 319710220_319710218 " id="route695" /><route edges="256708681_1436451818 1436451818_1691294363 1691294363_256702669 256702669_1696033201 1696033201_1696033199 1696033199_256702665 256702665_256702664 256702664_256699691 256699691_1691306777 1691306777_256699514 256699514_256700266 256700266_258051128 258051128_1436448639 1436448639_258050528 258050528_1436448634 1436448634_1436448640 1436448640_258050667 258050667_1436448626 1436448626_258050666 258050666_258050665 258050665_335620983 335620983_335620981 335620981_258051685 258051685_277328454 277328454_277328474 277328474_579370122 579370122_277328448 277328448_277328579 277328579_2212794607 2212794607_2212800277 2212800277_2212800279 2212800279_2212789815 2212789815_559301771 559301771_559301772 559301772_2794043493 2794043493_2794043494 2794043494_277328341 277328341_277328340 277328340_277328339 277328339_686125446 686125446_686125444 686125444_686125443 686125443_31286770 31286770_277328254 277328254_31286771 31286771_31286772 31286772_575536124 575536124_33572262 33572262_575536132 575536132_575529141 575529141_1598855531 1598855531_305542859 305542859_230246070 230246070_1598855538 1598855538_575529129 575529129_575536114 575536114_575536113 575536113_230246135 230246135_599266264 599266264_5254164662 5254164662_448149733 448149733_2088141648 2088141648_3109398453 3109398453_1942338562 1942338562_5255102038 5255102038_3109398454 3109398454_130175808 130175808_1835235063 1835235063_244859445 244859445_2706937424 2706937424_2706937435 2706937435_2706937425 2706937425_2706937456 2706937456_2706937438 2706937438_2706937423 2706937423_1835235058 1835235058_1835235056 1835235056_2706937421 2706937421_2706937437 2706937437_33531626 33531626_448174320 448174320_2104032791 2104032791_227786879 227786879_33568808 33568808_4307006947 4307006947_244856186 244856186_4307006946 4307006946_4307007239 4307007239_33531628 33531628_147659681 147659681_147660223 147660223_147606699 147606699_243645176 243645176_750763528 750763528_4307007254 4307007254_2204477276 2204477276_2031349495 2031349495_4307006951 4307006951_145268763 145268763_4307006950 4307006950_147603677 147603677_750743354 750743354_493334520 493334520_750763778 750763778_750763775 750763775_750763772 750763772_493334535 493334535_750763769 750763769_750763768 750763768_750763767 750763767_750763766 750763766_145268764 145268764_2456409737 2456409737_4060743921 4060743921_2031353418 2031353418_2031353431 2031353431_4294470717 4294470717_2199414688 2199414688_4294470775 4294470775_4294470774 4294470774_2199414701 2199414701_4294470716 4294470716_222421171 222421171_2200565864 2200565864_459518322 459518322_459518343 459518343_459518342 459518342_459518341 459518341_459518323 459518323_459518340 459518340_459518339 459518339_459518338 459518338_99507332 99507332_223078097 223078097_33238905 33238905_34165423 34165423_249216678 249216678_1296963666 1296963666_1296963659 1296963659_1296963687 1296963687_1296963674 1296963674_1296963683 1296963683_1296963654 1296963654_1296963676 1296963676_1296963636 1296963636_1296963652 1296963652_1296963680 1296963680_1296963655 1296963655_1296963681 1296963681_223158212 223158212_223100437 223100437_535030876 535030876_34160614 34160614_249216706 249216706_33567659 33567659_33567667 33567667_249216561 249216561_249216527 249216527_249216525 249216525_1287463841 1287463841_1297046462 1297046462_1297046484 1297046484_1297046419 1297046419_1297046385 1297046385_1297046470 1297046470_1287463899 1287463899_1287463889 1287463889_1287463813 1287463813_1287463942 1287463942_302123263 302123263_302123264 302123264_1294040354 1294040354_302123265 302123265_99652081 99652081_99652009 99652009_33448386 33448386_244549079 244549079_2815000040 2815000040_33123893 33123893_33240505 33240505_244310945 244310945_244310944 244310944_244310943 244310943_33240669 33240669_2395733186 2395733186_2395733188 2395733188_33240668 33240668_2395733187 2395733187_3221110918 3221110918_3221110919 3221110919_3221110920 3221110920_3221110921 3221110921_3221110922 3221110922_53865740 53865740_2209383418 2209383418_4326397441 4326397441_4326397440 4326397440_2209383462 2209383462_53865717 53865717_3374126181 3374126181_457840492 457840492_32193504 32193504_3318598895 3318598895_3318598893 3318598893_53865685 53865685_3318598892 3318598892_53865676 53865676_3318598894 3318598894_3318598890 3318598890_3318598881 3318598881_3318598897 3318598897_3318598891 3318598891_3318598884 3318598884_3318598885 3318598885_3318598889 3318598889_3318598896 3318598896_3318598883 3318598883_3318598887 3318598887_53865588 53865588_525355257 525355257_53865576 53865576_53865567 53865567_1833134506 1833134506_53246139 53246139_53246135 53246135_53246131 53246131_53246129 53246129_33574566 33574566_1280017714 1280017714_1280017765 1280017765_1280017896 1280017896_3318597900 3318597900_53246113 53246113_3318597902 3318597902_3318597906 3318597906_3318597898 3318597898_53246108 53246108_3318597905 3318597905_53246105 53246105_53246100 53246100_53246122 53246122_53246104 53246104_2105473998 2105473998_2105473991 2105473991_2105473994 2105473994_86656050 86656050_2105473993 2105473993_2105470562 2105470562_86658354 86658354_2105470583 2105470583_4460254035 4460254035_4460254034 4460254034_2105470559 2105470559_2105449021 2105449021_3873155060 3873155060_127627640 127627640_1316062834 1316062834_373069361 373069361_1316062877 1316062877_251084139 251084139_1316038621 1316038621_1133260588 1133260588_86662136 86662136_962313585 962313585_4889398639 4889398639_1315978746 1315978746_280918826 280918826_86674407 86674407_280920274 280920274_286452003 286452003_280920081 280920081_280920096 280920096_280920039 280920039_86685830 86685830_86686545 86686545_86687446 86687446_86687656 86687656_86710740 86710740_86691031 86691031_3162726475 3162726475_493879109 493879109_3162726477 3162726477_86691030 86691030_3162726473 3162726473_3162726479 3162726479_493879097 493879097_86691034 86691034_92242202 92242202_86688443 86688443_92242361 92242361_86688712 86688712_4003572166 4003572166_1096243313 1096243313_949544886 949544886_949544867 949544867_1096243297 1096243297_4003572167 4003572167_67804744 67804744_4753916557 4753916557_67804739 67804739_67761590 67761590_444597350 444597350_67761566 67761566_67761568 67761568_67804617 67804617_67803833 67803833_67804702 67804702_67804691 67804691_67804706 67804706_67804693 67804693_67805474 67805474_67700706 67700706_3783290992 3783290992_3783290995 3783290995_3783290997 3783290997_3783290998 3783290998_67702563 67702563_67710024 67710024_67700339 67700339_3235486777 3235486777_67679713 67679713_3783290999 3783290999_67677440 67677440_3783291000 3783291000_67677276 67677276_3783291001 3783291001_67677736 67677736_249919639 249919639_249920987 249920987_67635925 67635925_249921432 249921432_5404645671 5404645671_26680226 26680226_3235486821 3235486821_3235486822 3235486822_249924717 249924717_249924716 249924716_2602459356 2602459356_3853718231 3853718231_35726534 35726534_67629512 67629512_35726548 35726548_35726549 35726549_35726550 35726550_35726551 35726551_35726552 35726552_583184479 583184479_583184648 583184648_583184647 583184647_583184646 583184646_583184645 583184645_583184644 583184644_583184643 583184643_583184642 583184642_583184641 583184641_583184640 583184640_583184639 583184639_583184638 583184638_583184636 583184636_583184634 583184634_583184632 583184632_583184630 583184630_583184629 583184629_583184628 583184628_583184627 583184627_583184626 583184626_583184625 583184625_583184624 583184624_583184623 583184623_583184622 583184622_583184621 583184621_583184620 583184620_583184619 583184619_583184618 583184618_583184617 583184617_583184616 583184616_583184615 583184615_583184614 583184614_583184613 583184613_583184612 583184612_583184611 583184611_583184610 583184610_583184609 583184609_583184608 583184608_583184607 583184607_583184606 583184606_583184605 583184605_583184604 583184604_583184603 583184603_583184602 583184602_583184597 583184597_583184593 583184593_583184590 583184590_583184587 583184587_583184582 583184582_583184579 583184579_583184576 583184576_583184565 583184565_583184562 583184562_583184556 583184556_583184548 583184548_583184543 583184543_583184538 583184538_583184537 583184537_583184536 583184536_583184533 583184533_583184531 583184531_583184527 583184527_583184524 583184524_583184519 583184519_583184513 583184513_583184507 583184507_583184506 583184506_583184505 583184505_583184504 583184504_583184503 583184503_583184502 583184502_583184501 583184501_583184500 583184500_583184499 583184499_583184498 583184498_583184497 583184497_583184496 583184496_583184495 583184495_583184494 583184494_583184493 583184493_583184492 583184492_583184491 583184491_583184490 583184490_583184489 583184489_583184488 583184488_583184487 583184487_583184486 583184486_583184485 583184485_583184484 583184484_583184402 583184402_583184483 583184483_583184482 583184482_583184481 583184481_2692573961 2692573961_2692573962 2692573962_2692573963 2692573963_583184231 583184231_583185510 583185510_583185509 583185509_583185508 583185508_583185507 583185507_583185506 583185506_583185505 583185505_583185504 583185504_583185503 583185503_583185502 583185502_583185501 583185501_583185500 583185500_583185499 583185499_825445648 825445648_825446278 825446278_583185497 583185497_583185496 583185496_583185495 583185495_583185451 583185451_583185494 583185494_583185492 583185492_583185490 583185490_583185488 583185488_583185487 583185487_583185485 583185485_583185483 583185483_583185482 583185482_583185481 583185481_583185480 583185480_583185452 583185452_583185479 583185479_583185478 583185478_583185477 583185477_583185476 583185476_583185475 583185475_583185474 583185474_583185473 583185473_583185472 583185472_583185471 583185471_583185469 583185469_583185453 583185453_583185930 583185930_583185928 583185928_583185926 583185926_583185924 583185924_583185923 583185923_583187147 583187147_583185523 583185523_583187050 583187050_583186811 583186811_1725233607 1725233607_583185524 583185524_2142166068 2142166068_122727211 122727211_122725511 122725511_2097584295 2097584295_5033687753 5033687753_4752115386 4752115386_4752128232 4752128232_2097585146 2097585146_2097585148 2097585148_2097585147 2097585147_1040577862 1040577862_4785338275 4785338275_370708625 370708625_250042576 250042576_1473826443 1473826443_4782468222 4782468222_5380278630 5380278630_5380278631 5380278631_4777848126 4777848126_1833150216 1833150216_2097584296 2097584296_1833150219 1833150219_1833150214 1833150214_583185642 583185642_5404620563 5404620563_5404620568 5404620568_583185882 583185882_583185880 583185880_4681213299 4681213299_583185874 583185874_583185933 583185933_3219517596 3219517596_3074633700 3074633700_3910223806 3910223806_3910223796 3910223796_3910223790 3910223790_3910223797 3910223797_3074633687 3074633687_4793613518 4793613518_1833149615 1833149615_2097608943 2097608943_250012682 250012682_250014458 250014458_247297388 247297388_4435491629 4435491629_3973058506 3973058506_1833149617 1833149617_3973058511 3973058511_3973058512 3973058512_3973058500 3973058500_4999073425 4999073425_3973058508 3973058508_4999073426 4999073426_3973058499 3973058499_1570377978 1570377978_1570377983 1570377983_1570377991 1570377991_1570377981 1570377981_250015302 250015302_250015012 250015012_3973065565 3973065565_250016011 250016011_3973065564 3973065564_250017211 250017211_250017492 250017492_250016203 250016203_4785428939 4785428939_250016204 250016204_4963397771 4963397771_250016205 250016205_581227455 581227455_250016206 250016206_320475387 320475387_320475355 320475355_320474998 320474998_320474719 320474719_320476087 320476087_320477440 320477440_320477441 320477441_320477340 320477340_320477442 320477442_320477443 320477443_1407986892 1407986892_1407986894 1407986894_1407986893 1407986893_1407986895 1407986895_1407986896 1407986896_1407986897 1407986897_1407986891 1407986891_319931897 319931897_319932372 319932372_319932754 319932754_319933160 319933160_319933340 319933340_319933638 319933638_319933747 319933747_319936558 319936558_319936156 319936156_319932465 319932465_319935054 319935054_247848545 247848545_319710222 319710222_319710220 319710220_319710218 " id="route598" /><route edges="631477263_1691294369 1691294369_1888317278 1888317278_1793946448 1793946448_251443555 251443555_251444045 251444045_251848266 251848266_243962344 243962344_251443995 251443995_243962341 243962341_1430915347 1430915347_243962335 243962335_1440096617 1440096617_3380347999 3380347999_243962332 243962332_1440096616 1440096616_1440096629 1440096629_1440096614 1440096614_1440096637 1440096637_243962329 243962329_1440096633 1440096633_243962326 243962326_1440096631 1440096631_243962323 243962323_1440096634 1440096634_243962318 243962318_479783451 479783451_4674069696 4674069696_479783442 479783442_479783412 479783412_479783417 479783417_2625460169 2625460169_479783424 479783424_1440096622 1440096622_3781562089 3781562089_3781562083 3781562083_3781562087 3781562087_3781562093 3781562093_3781562092 3781562092_3781562091 3781562091_3781562084 3781562084_3781562086 3781562086_3781562090 3781562090_3781562085 3781562085_1389508658 1389508658_4605264194 4605264194_127715644 127715644_4605264193 4605264193_599267924 599267924_599267918 599267918_599267919 599267919_599267920 599267920_599267921 599267921_599267922 599267922_599267923 599267923_599267889 599267889_279095452 279095452_279095451 279095451_279095450 279095450_279095449 279095449_279095448 279095448_279095447 279095447_279095446 279095446_279095445 279095445_279095429 279095429_3373078241 3373078241_1374354442 1374354442_279095428 279095428_279095443 279095443_279095442 279095442_279095441 279095441_723762616 723762616_723762613 723762613_31286868 31286868_723762023 723762023_31286867 31286867_723762019 723762019_571803229 571803229_723762017 723762017_723762016 723762016_723762014 723762014_723760934 723760934_571803232 571803232_31286865 31286865_599266886 599266886_599266883 599266883_31286862 31286862_723760196 723760196_723760190 723760190_723760185 723760185_723760180 723760180_723760151 723760151_723760144 723760144_723760138 723760138_723760132 723760132_723760128 723760128_723760122 723760122_723760117 723760117_723760113 723760113_723760108 723760108_31286848 31286848_31286842 31286842_723759288 723759288_723759286 723759286_31286835 31286835_723758728 723758728_723759278 723759278_31286829 31286829_31286821 31286821_258051684 258051684_335620981 335620981_258051685 258051685_2808854960 2808854960_559301795 559301795_2808854973 2808854973_2808854971 2808854971_2808854972 2808854972_2808854976 2808854976_3187857298 3187857298_3187857299 3187857299_3187857300 3187857300_2808854975 2808854975_277328636 277328636_2808854970 2808854970_2368006574 2368006574_277328578 277328578_1435070804 1435070804_4307007242 4307007242_4307007241 4307007241_2212789806 2212789806_4307007244 4307007244_266078702 266078702_266078717 266078717_266079128 266079128_4307007247 4307007247_2430775432 2430775432_266079453 266079453_1832840604 1832840604_575529138 575529138_575529137 575529137_575529136 575529136_230246167 230246167_230246081 230246081_230246108 230246108_575536113 575536113_230246135 230246135_599266264 599266264_5254164662 5254164662_448149733 448149733_2088141648 2088141648_3109398453 3109398453_1942338562 194233