<nodes><node id="2302267392" x="144.9212231" y="-37.7924647" /><node id="2302267394" x="144.9211271" y="-37.7925256" /><node id="67676843" x="144.9214453" y="-37.79277" /><node id="86688443" x="144.930896" y="-37.7912546" /><node id="493334535" x="144.9798088" y="-37.7853656" /><node id="280920081" x="144.935774" y="-37.790239" /><node id="583184402" x="144.9092273" y="-37.8014765" /><node id="575536132" x="144.9922405" y="-37.782942" /><node id="145268763" x="144.9809886" y="-37.7855706" /><node id="145268764" x="144.9796968" y="-37.7854292" /><node id="280920096" x="144.9357561" y="-37.7903289" /><node id="1297046368" x="144.9695382" y="-37.7854818" /><node id="319936549" x="144.8682202" y="-37.8333507" /><node id="33568808" x="144.98555" y="-37.7834888" /><node id="319936558" x="144.8686468" y="-37.8308841" /><node id="67701349" x="144.9259069" y="-37.7921958" /><node id="67677276" x="144.9214034" y="-37.7935955" /><node id="319932465" x="144.8666564" y="-37.8306692" /><node id="1389508658" x="145.0090541" y="-37.7857722" /><node id="277328563" x="144.9992012" y="-37.7824266" /><node id="1296963636" x="144.9738746" y="-37.7846919" /><node id="244078526" x="144.9029067" y="-37.8624781" /><node id="1296963640" x="144.9736252" y="-37.7861154" /><node id="1296963642" x="144.9747955" y="-37.7862349" /><node id="247297375" x="144.8962952" y="-37.8405042" /><node id="1296963644" x="144.9705386" y="-37.7857763" /><node id="723760138" x="145.0021044" y="-37.7831381" /><node id="1296963646" x="144.9694862" y="-37.785476" /><node id="244080705" x="144.901961" y="-37.8593342" /><node id="1296963651" x="144.9720131" y="-37.7859336" /><node id="1296963652" x="144.9738422" y="-37.7847002" /><node id="1296963654" x="144.9739404" y="-37.7847029" /><node id="1296963655" x="144.9736721" y="-37.7847333" /><node id="256708681" x="145.0066" y="-37.7798787" /><node id="1296963658" x="144.9725344" y="-37.7859919" /><node id="1296963659" x="144.9741201" y="-37.7847736" /><node id="686095451" x="144.9891775" y="-37.7814526" /><node id="3162726477" x="144.9315887" y="-37.7912897" /><node id="688296923" x="144.9876441" y="-37.7814043" /><node id="3162726479" x="144.9315008" y="-37.7912864" /><node id="1296963664" x="144.9737043" y="-37.7861234" /><node id="1296963666" x="144.9742595" y="-37.7848139" /><node id="1296963669" x="144.9714498" y="-37.7858735" /><node id="1296963670" x="144.9742569" y="-37.7861809" /><node id="67803833" x="144.9272907" y="-37.7910063" /><node id="1296963672" x="144.9709137" y="-37.7858163" /><node id="67670105" x="144.9218404" y="-37.7926273" /><node id="1296963674" x="144.9739751" y="-37.7847351" /><node id="1296963675" x="144.9729152" y="-37.7860377" /><node id="1296963676" x="144.9739088" y="-37.7846928" /><node id="1296963678" x="144.9695973" y="-37.7856758" /><node id="583184479" x="144.9142915" y="-37.7963321" /><node id="1296963680" x="144.9738106" y="-37.7847213" /><node id="1296963681" x="144.9735381" y="-37.7847326" /><node id="583184482" x="144.9091714" y="-37.8015508" /><node id="1296963683" x="144.9739672" y="-37.7847224" /><node id="583184484" x="144.9093296" y="-37.801518" /><node id="583184485" x="144.9095402" y="-37.8012457" /><node id="583184486" x="144.9097038" y="-37.8010178" /><node id="1296963687" x="144.9740155" y="-37.7847471" /><node id="2200565864" x="144.9764066" y="-37.7850577" /><node id="583184489" x="144.9102684" y="-37.8001733" /><node id="583184490" x="144.9104213" y="-37.8000249" /><node id="583184491" x="144.910715" y="-37.7998034" /><node id="583184492" x="144.9109993" y="-37.7996138" /><node id="583184493" x="144.9112621" y="-37.7994887" /><node id="583184494" x="144.9115626" y="-37.7993711" /><node id="583184495" x="144.9118469" y="-37.799299" /><node id="583184496" x="144.9121057" y="-37.7992439" /><node id="583184497" x="144.9122854" y="-37.7992206" /><node id="583184498" x="144.9124624" y="-37.7992174" /><node id="583184499" x="144.9126381" y="-37.7992185" /><node id="583184500" x="144.9128165" y="-37.7992227" /><node id="583184501" x="144.9130673" y="-37.7992503" /><node id="583184502" x="144.9132456" y="-37.7992905" /><node id="583184503" x="144.91342" y="-37.7993382" /><node id="583184504" x="144.9135849" y="-37.799405" /><node id="583184505" x="144.9137231" y="-37.7994686" /><node id="583184506" x="144.9139236" y="-37.7996047" /><node id="583184507" x="144.9140939" y="-37.7997107" /><node id="227786879" x="144.9857534" y="-37.7835102" /><node id="583184513" x="144.9141878" y="-37.7997605" /><node id="247297387" x="144.895899" y="-37.8287589" /><node id="279095428" x="145.0037325" y="-37.7845987" /><node id="279095429" x="145.0046296" y="-37.7843869" /><node id="3221110918" x="144.9590937" y="-37.78945" /><node id="3221110919" x="144.9590699" y="-37.7895314" /><node id="3221110920" x="144.9590376" y="-37.7897428" /><node id="3221110921" x="144.958997" y="-37.7897811" /><node id="3221110922" x="144.9589895" y="-37.7898592" /><node id="4963397771" x="144.8862479" y="-37.8297803" /><node id="583184524" x="144.9143433" y="-37.7998177" /><node id="583184527" x="144.9143963" y="-37.7998268" /><node id="279095441" x="145.0038479" y="-37.7848435" /><node id="279095442" x="145.0037848" y="-37.7847439" /><node id="279095443" x="145.0037661" y="-37.7846983" /><node id="53246100" x="144.9456214" y="-37.7893978" /><node id="279095445" x="145.0049112" y="-37.7843326" /><node id="279095446" x="145.0051972" y="-37.7844678" /><node id="279095447" x="145.0057207" y="-37.7846781" /><node id="279095448" x="145.0063645" y="-37.7849833" /><node id="279095449" x="145.0066992" y="-37.7851122" /><node id="279095450" x="145.0069138" y="-37.7851597" /><node id="279095451" x="145.0072228" y="-37.7852207" /><node id="53246108" x="144.9468537" y="-37.7892622" /><node id="33240669" x="144.9623626" y="-37.7886825" /><node id="583184543" x="144.9147396" y="-37.7997547" /><node id="53246113" x="144.9484441" y="-37.7888333" /><node id="67762203" x="144.9288013" y="-37.7921458" /><node id="583184548" x="144.9148121" y="-37.7997187" /><node id="579371252" x="144.998225" y="-37.7822974" /><node id="2097584295" x="144.899412" y="-37.8162447" /><node id="2097584296" x="144.8982767" y="-37.8220201" /><node id="575529129" x="144.9919679" y="-37.7830224" /><node id="53246122" x="144.9450539" y="-37.7894303" /><node id="583184556" x="144.9148898" y="-37.7996736" /><node id="1598855538" x="144.9921264" y="-37.7831305" /><node id="723759278" x="145.001167" y="-37.7833692" /><node id="575529136" x="144.993688" y="-37.7842513" /><node id="53246129" x="144.9498281" y="-37.7882114" /><node id="575529138" x="144.9937732" y="-37.7845046" /><node id="222421171" x="144.9766341" y="-37.7850834" /><node id="583184565" x="144.9150508" y="-37.7995777" /><node id="5254164662" x="144.9909931" y="-37.7831603" /><node id="53246135" x="144.9505898" y="-37.7878614" /><node id="723759288" x="145.0014835" y="-37.7831466" /><node id="33238965" x="144.9851846" y="-37.7817364" /><node id="53246139" x="144.9509462" y="-37.7877523" /><node id="575529141" x="144.9922197" y="-37.7829609" /><node id="583184576" x="144.9151326" y="-37.7995258" /><node id="583184579" x="144.9152151" y="-37.7994718" /><node id="3082413661" x="144.8949571" y="-37.8348371" /><node id="583184582" x="144.9152707" y="-37.7994341" /><node id="256702664" x="145.0047942" y="-37.7796633" /><node id="256702665" x="145.0053253" y="-37.7794184" /><node id="583185503" x="144.9077216" y="-37.8048664" /><node id="583184587" x="144.9153244" y="-37.799379" /><node id="2726414540" x="144.9218732" y="-37.7920519" /><node id="256702669" x="145.0067027" y="-37.7793602" /><node id="2726414542" x="144.9215326" y="-37.7922682" /><node id="2726414543" x="144.9245799" y="-37.7897845" /><node id="250042576" x="144.8987876" y="-37.8197616" /><node id="583184593" x="144.9154015" y="-37.7992312" /><node id="280920274" x="144.9360449" y="-37.7888296" /><node id="583184597" x="144.915441" y="-37.799148" /><node id="1072500950" x="144.9283652" y="-37.7889496" /><node id="583184602" x="144.9154846" y="-37.7990765" /><node id="583184603" x="144.9155597" y="-37.7989922" /><node id="2602459356" x="144.9164316" y="-37.7953922" /><node id="147603677" x="144.9805731" y="-37.7855241" /><node id="583184606" x="144.9157428" y="-37.7988661" /><node id="583184607" x="144.9157904" y="-37.7988296" /><node id="583184608" x="144.91584" y="-37.7987819" /><node id="583184609" x="144.9158749" y="-37.7987321" /><node id="583184610" x="144.9159084" y="-37.7986881" /><node id="583184611" x="144.9159466" y="-37.7986394" /><node id="583184612" x="144.9160023" y="-37.7985832" /><node id="448149733" x="144.990377" y="-37.7834085" /><node id="583184614" x="144.9161123" y="-37.7984115" /><node id="583184615" x="144.9161404" y="-37.7983686" /><node id="583184616" x="144.9161639" y="-37.7983517" /><node id="583184617" x="144.916184" y="-37.7983305" /><node id="583184618" x="144.9161954" y="-37.7982981" /><node id="583184619" x="144.9162256" y="-37.7981625" /><node id="583184620" x="144.9162236" y="-37.7981111" /><node id="583184621" x="144.9161827" y="-37.7980639" /><node id="583184622" x="144.9161357" y="-37.7980078" /><node id="1440096637" x="145.01314" y="-37.7845948" /><node id="448174320" x="144.9863107" y="-37.7835689" /><node id="4060743921" x="144.9783778" y="-37.7852805" /><node id="583184626" x="144.9158534" y="-37.7976242" /><node id="583184627" x="144.9157877" y="-37.7975341" /><node id="583184628" x="144.9156804" y="-37.7974053" /><node id="583184629" x="144.9155979" y="-37.7973142" /><node id="583184630" x="144.9155255" y="-37.7972368" /><node id="583184632" x="144.915443" y="-37.7971574" /><node id="525355257" x="144.9521107" y="-37.7877727" /><node id="583184634" x="144.915327" y="-37.7970514" /><node id="320475387" x="144.8851589" y="-37.8296592" /><node id="583184636" x="144.9152204" y="-37.7969587" /><node id="4752128232" x="144.8992741" y="-37.8170213" /><node id="583184638" x="144.9151125" y="-37.7968612" /><node id="302123263" x="144.9688421" y="-37.784941" /><node id="302123264" x="144.9681806" y="-37.7848783" /><node id="302123265" x="144.9672986" y="-37.7847939" /><node id="583184642" x="144.914802" y="-37.7966026" /><node id="583184643" x="144.9146813" y="-37.7965141" /><node id="583184644" x="144.9145626" y="-37.7964309" /><node id="583184645" x="144.9144453" y="-37.796343" /><node id="583184646" x="144.9143789" y="-37.796299" /><node id="583184647" x="144.91435" y="-37.7962894" /><node id="1072501000" x="144.928366" y="-37.7889449" /><node id="3318597898" x="144.9471378" y="-37.7892044" /><node id="250016011" x="144.8928401" y="-37.8305085" /><node id="3318597900" x="144.9490872" y="-37.7885902" /><node id="3318597902" x="144.9480687" y="-37.7889639" /><node id="583185453" x="144.9053193" y="-37.8096453" /><node id="3318597905" x="144.9465775" y="-37.7893093" /><node id="3318597906" x="144.9476672" y="-37.78908" /><node id="1430915347" x="145.0143352" y="-37.7844044" /><node id="5246511886" x="144.9981843" y="-37.7822924" /><node id="5008732439" x="144.8970256" y="-37.8419599" /><node id="686125444" x="144.993642" y="-37.7828803" /><node id="92242202" x="144.9310789" y="-37.7912765" /><node id="4307007226" x="144.9853028" y="-37.7815988" /><node id="250286366" x="144.901409" y="-37.8655378" /><node id="319705376" x="144.8667247" y="-37.8331901" /><node id="67805474" x="144.9256599" y="-37.7919287" /><node id="583184483" x="144.909217" y="-37.8014767" /><node id="686125446" x="144.9940001" y="-37.7829376" /><node id="5404645671" x="144.9195966" y="-37.7940579" /><node id="249919790" x="144.9202957" y="-37.7937059" /><node id="4813096695" x="144.8854921" y="-37.8314454" /><node id="1072501043" x="144.9283593" y="-37.7889951" /><node id="319710218" x="144.8624463" y="-37.8336139" /><node id="250039861" x="144.9007892" y="-37.8537649" /><node id="2142166068" x="144.8996865" y="-37.8147497" /><node id="127715644" x="145.0089678" y="-37.7855398" /><node id="5404645696" x="144.9231502" y="-37.7911813" /><node id="4605264193" x="145.0089119" y="-37.7855536" /><node id="4605264194" x="145.0089812" y="-37.785576" /><node id="1072501059" x="144.9278077" y="-37.7893294" /><node id="67709252" x="144.9238489" y="-37.7908299" /><node id="2713483589" x="144.8955506" y="-37.8376467" /><node id="3019501896" x="144.9200062" y="-37.7936468" /><node id="3235486775" x="144.9255317" y="-37.792408" /><node id="2713483598" x="144.8958869" y="-37.8288796" /><node id="2713483599" x="144.895942" y="-37.8289615" /><node id="3235486776" x="144.9253079" y="-37.7925385" /><node id="319932754" x="144.8736129" y="-37.8314266" /><node id="1435070804" x="144.9960596" y="-37.7842859" /><node id="1096241493" x="144.929054" y="-37.7882395" /><node id="1096241494" x="144.9289965" y="-37.7882959" /><node id="1096241495" x="144.9290097" y="-37.7883549" /><node id="2713483609" x="144.8950124" y="-37.8279316" /><node id="251443555" x="145.0194866" y="-37.78465" /><node id="750778725" x="144.9839639" y="-37.7831573" /><node id="1440096614" x="145.0133197" y="-37.7845711" /><node id="5380278631" x="144.8984213" y="-37.8218424" /><node id="1440096616" x="145.0136597" y="-37.7845577" /><node id="1440096617" x="145.014118" y="-37.7844959" /><node id="1598855531" x="144.9922764" y="-37.782999" /><node id="1440096622" x="145.0104527" y="-37.7851731" /><node id="583185469" x="144.9053988" y="-37.8096419" /><node id="459518322" x="144.9762244" y="-37.78503" /><node id="459518323" x="144.9761215" y="-37.7849193" /><node id="1440096629" x="145.0134349" y="-37.7845731" /><node id="1440096631" x="145.012332" y="-37.7847325" /><node id="127627640" x="144.9400305" y="-37.7891146" /><node id="1440096633" x="145.0127085" y="-37.7847258" /><node id="1440096634" x="145.0118941" y="-37.7848477" /><node id="583186811" x="144.9011475" y="-37.8122805" /><node id="3781562090" x="145.0093404" y="-37.7857419" /><node id="277328254" x="144.99352" y="-37.7828687" /><node id="583185509" x="144.9085826" y="-37.8029867" /><node id="253768065" x="144.9318279" y="-37.7884066" /><node id="459518338" x="144.9759924" y="-37.7849641" /><node id="459518339" x="144.9760219" y="-37.7849385" /><node id="459518340" x="144.9760608" y="-37.7849224" /><node id="459518341" x="144.9761627" y="-37.7849312" /><node id="459518342" x="144.9761962" y="-37.7849536" /><node id="459518343" x="144.9762179" y="-37.7849837" /><node id="33531628" x="144.9838356" y="-37.7833065" /><node id="358671585" x="144.8954498" y="-37.8316296" /><node id="1407986894" x="144.8758824" y="-37.8303631" /><node id="583185476" x="144.9057328" y="-37.8087996" /><node id="583185477" x="144.9058106" y="-37.8086385" /><node id="250040390" x="144.8944053" y="-37.8465677" /><node id="99652009" x="144.9664502" y="-37.7847081" /><node id="1833134506" x="144.9513211" y="-37.7877016" /><node id="2368006574" x="144.9968634" y="-37.7843798" /><node id="1696033199" x="145.0053748" y="-37.7792533" /><node id="2808854960" x="144.9988567" y="-37.7842326" /><node id="1696033201" x="145.0066028" y="-37.7792785" /><node id="279249331" x="144.9283266" y="-37.7921458" /><node id="33239476" x="144.9680993" y="-37.7853747" /><node id="3162726473" x="144.9315309" y="-37.7912794" /><node id="320477442" x="144.8760333" y="-37.8303355" /><node id="2808854970" x="144.9977306" y="-37.7844844" /><node id="2808854971" x="144.9987554" y="-37.7845378" /><node id="2808854972" x="144.9987337" y="-37.7845366" /><node id="2808854973" x="144.9987755" y="-37.7845441" /><node id="2808854975" x="144.9986707" y="-37.784596" /><node id="2808854976" x="144.9987127" y="-37.7845408" /><node id="33448386" x="144.9663726" y="-37.7852031" /><node id="3162726475" x="144.9316239" y="-37.7913219" /><node id="4003572166" x="144.930285" y="-37.7911175" /><node id="1725233607" x="144.8999602" y="-37.8147543" /><node id="4003572168" x="144.9293547" y="-37.7882552" /><node id="1725233610" x="144.895076" y="-37.8268304" /><node id="750763767" x="144.9797275" y="-37.7853837" /><node id="250016204" x="144.8863556" y="-37.8297935" /><node id="250016205" x="144.886164" y="-37.82977" /><node id="243962318" x="145.0117957" y="-37.7849146" /><node id="1296963661" x="144.9693632" y="-37.7854667" /><node id="2199405008" x="144.9768808" y="-37.7864645" /><node id="4793613048" x="144.9051945" y="-37.8094729" /><node id="3219517596" x="144.8953386" y="-37.8247498" /><node id="243962323" x="145.012102" y="-37.7847589" /><node id="277328340" x="144.9947479" y="-37.783027" /><node id="277328341" x="144.9958856" y="-37.7831496" /><node id="33448406" x="144.966573" y="-37.7852229" /><node id="4681213309" x="144.895115" y="-37.826616" /><node id="67710024" x="144.9233913" y="-37.7924413" /><node id="243962329" x="145.0129112" y="-37.7846628" /><node id="243962332" x="145.0138874" y="-37.7845247" /><node id="679124794" x="144.9028978" y="-37.8626465" /><node id="243962335" x="145.0142645" y="-37.7843878" /><node id="258050528" x="145.0018051" y="-37.7823775" /><node id="243962341" x="145.0159432" y="-37.7845033" /><node id="33448422" x="144.9689691" y="-37.784245" /><node id="243962344" x="145.0174401" y="-37.7847836" /><node id="266078702" x="144.9957916" y="-37.7844888" /><node id="3235486782" x="144.924122" y="-37.7932391" /><node id="99652081" x="144.9666484" y="-37.784732" /><node id="448176511" x="144.9877576" y="-37.7835328" /><node id="479783412" x="145.0115988" y="-37.7846717" /><node id="479783417" x="145.0114677" y="-37.7847209" /><node id="266078717" x="144.9953945" y="-37.7848717" /><node id="244079102" x="144.901019" y="-37.8662635" /><node id="244079103" x="144.902906" y="-37.8626624" /><node id="479783424" x="145.0106437" y="-37.7850533" /><node id="3235486806" x="144.9214761" y="-37.7941251" /><node id="1296963671" x="144.9702457" y="-37.785745" /><node id="679124780" x="144.9020013" y="-37.8596205" /><node id="67698776" x="144.9234332" y="-37.7930414" /><node id="479783442" x="145.011706" y="-37.784828" /><node id="244078518" x="144.9021485" y="-37.8592534" /><node id="1390576154" x="144.9016355" y="-37.8546049" /><node id="479783451" x="145.0117315" y="-37.7850007" /><node id="244858288" x="144.9860731" y="-37.783054" /><node id="1390576163" x="144.901199" y="-37.8541555" /><node id="244080599" x="144.9019564" y="-37.8595824" /><node id="583185500" x="144.9072898" y="-37.8057671" /><node id="583188038" x="144.9025942" y="-37.8090346" /><node id="599267889" x="145.0077978" y="-37.7855304" /><node id="583186867" x="144.9037211" y="-37.8093686" /><node id="244859445" x="144.9877631" y="-37.7836967" /><node id="1296964150" x="144.9749234" y="-37.7862447" /><node id="2692573961" x="144.9089226" y="-37.8019331" /><node id="1296964152" x="144.9749278" y="-37.7862072" /><node id="583186868" x="144.9053723" y="-37.8094855" /><node id="3380347999" x="145.0140014" y="-37.7845105" /><node id="2105449021" x="144.9416035" y="-37.78928" /><node id="1296964158" x="144.975055" y="-37.7862695" /><node id="277328448" x="144.9974845" y="-37.783343" /><node id="1296964162" x="144.9748014" y="-37.7861942" /><node id="277328454" x="144.9979191" y="-37.783392" /><node id="583184481" x="144.9090603" y="-37.8015904" /><node id="599267918" x="145.0087696" y="-37.7854983" /><node id="599267919" x="145.0087414" y="-37.7854591" /><node id="599267920" x="145.008614" y="-37.7854591" /><node id="599267921" x="145.0083364" y="-37.7855364" /><node id="599267922" x="145.0081366" y="-37.7856064" /><node id="599267923" x="145.0079689" y="-37.7856106" /><node id="599267924" x="145.008818" y="-37.7855769" /><node id="358675029" x="144.896658" y="-37.8433687" /><node id="92242361" x="144.9306254" y="-37.7912222" /><node id="358675033" x="144.8964763" y="-37.8435401" /><node id="277328474" x="144.9976917" y="-37.7833661" /><node id="358675035" x="144.896442" y="-37.8436418" /><node id="358675036" x="144.8964968" y="-37.8437615" /><node id="358675037" x="144.896594" y="-37.843951" /><node id="3235486821" x="144.9184514" y="-37.7947412" /><node id="319705696" x="144.867747" y="-37.8332999" /><node id="583185510" x="144.9090158" y="-37.8020944" /><node id="2206276199" x="144.8947233" y="-37.8459039" /><node id="1096241492" x="144.9291352" y="-37.7882246" /><node id="258050665" x="145.0013829" y="-37.7826737" /><node id="583187050" x="144.9016295" y="-37.8112081" /><node id="583184487" x="144.9098795" y="-37.8006946" /><node id="583184488" x="144.9100203" y="-37.8004912" /><node id="571834131" x="144.8949517" y="-37.8355279" /><node id="571832425" x="144.9816849" y="-37.7846487" /><node id="1296963690" x="144.9696185" y="-37.7855429" /><node id="250286724" x="144.8998595" y="-37.8684593" /><node id="250286725" x="144.900874" y="-37.8665549" /><node id="2569083526" x="144.9894688" y="-37.7815554" /><node id="1296963692" x="144.9723887" y="-37.785975" /><node id="2794043493" x="144.9960033" y="-37.783202" /><node id="2212800279" x="144.9962668" y="-37.7831908" /><node id="4753916557" x="144.9290341" y="-37.7905357" /><node id="250038929" x="144.9022677" y="-37.8566374" /><node id="247986834" x="144.902474" y="-37.8635595" /><node id="33569427" x="144.9877393" y="-37.7812923" /><node id="1296964145" x="144.9763989" y="-37.786411" /><node id="319705751" x="144.8687514" y="-37.8334077" /><node id="1691294363" x="145.0066754" y="-37.7793863" /><node id="1691294369" x="145.0209417" y="-37.7827142" /><node id="4457663259" x="144.9319205" y="-37.7883852" /><node id="67676838" x="144.920924" y="-37.7930739" /><node id="1096243313" x="144.9300603" y="-37.7911013" /><node id="4003572167" x="144.9296462" y="-37.7910718" /><node id="3561071276" x="144.8964591" y="-37.8436909" /><node id="34165423" x="144.9749911" y="-37.7848889" /><node id="1778612912" x="144.9203403" y="-37.793274" /><node id="67629512" x="144.9156711" y="-37.7958686" /><node id="3783290995" x="144.9244335" y="-37.7918363" /><node id="277328564" x="144.9984043" y="-37.7823215" /><node id="277328566" x="144.9982724" y="-37.7823032" /><node id="583185865" x="144.8949865" y="-37.8273501" /><node id="583185524" x="144.8998301" y="-37.8147516" /><node id="279108283" x="144.9236528" y="-37.7906329" /><node id="3783290997" x="144.9240989" y="-37.7920305" /><node id="5404601025" x="144.8958993" y="-37.8298123" /><node id="277328578" x="144.9963359" y="-37.7843241" /><node id="250016203" x="144.8884167" y="-37.8300202" /><node id="277328580" x="144.9967596" y="-37.782139" /><node id="3783290998" x="144.9238616" y="-37.7921683" /><node id="2482322657" x="144.9007007" y="-37.8668803" /><node id="5033687753" x="144.8993695" y="-37.816484" /><node id="583187147" x="144.9024223" y="-37.8094477" /><node id="2031381196" x="144.9852323" y="-37.7816809" /><node id="250038990" x="144.902434" y="-37.8574548" /><node id="3783291000" x="144.9217695" y="-37.793383" /><node id="67702563" x="144.9235836" y="-37.7923297" /><node id="250016206" x="144.8859667" y="-37.829748" /><node id="3853718231" x="144.9158095" y="-37.7957116" /><node id="679124772" x="144.9020909" y="-37.8592623" /><node id="67676965" x="144.9214889" y="-37.792817" /><node id="319933160" x="144.8726162" y="-37.8313178" /><node id="277328339" x="144.9941728" y="-37.7829591" /><node id="4782468222" x="144.8984953" y="-37.8214129" /><node id="243645176" x="144.9820281" y="-37.7854104" /><node id="86710740" x="144.9320311" y="-37.7913848" /><node id="250014458" x="144.8948754" y="-37.8277298" /><node id="277328636" x="144.9985966" y="-37.7845856" /><node id="250038551" x="144.9019041" y="-37.8555087" /><node id="122727211" x="144.8996149" y="-37.8150144" /><node id="243962326" x="145.0125282" y="-37.784752" /><node id="5030107910" x="144.8946477" y="-37.8460579" /><node id="250038401" x="144.9015874" y="-37.8545511" /><node id="67755820" x="144.9278915" y="-37.7893987" /><node id="2692573962" x="144.9088762" y="-37.8020413" /><node id="2692573963" x="144.9088939" y="-37.8020658" /><node id="4923835161" x="144.8962539" y="-37.844124" /><node id="67762204" x="144.9278143" y="-37.7921458" /><node id="679124781" x="144.9019166" y="-37.8595173" /><node id="4457663248" x="144.9293853" y="-37.788165" /><node id="244080504" x="144.9003902" y="-37.8533739" /><node id="320477340" x="144.8769842" y="-37.8304542" /><node id="250040628" x="144.8953561" y="-37.845422" /><node id="1691306777" x="145.0039256" y="-37.7799904" /><node id="251443995" x="145.0171343" y="-37.7847412" /><node id="4457663260" x="144.9317054" y="-37.7883965" /><node id="249920986" x="144.9200925" y="-37.7939335" /><node id="2794043494" x="144.9959321" y="-37.7831411" /><node id="86685830" x="144.9341537" y="-37.7912084" /><node id="280918826" x="144.9364677" y="-37.788717" /><node id="583184519" x="144.9142743" y="-37.7997971" /><node id="227782295" x="144.9880765" y="-37.7812703" /><node id="4435491629" x="144.8948171" y="-37.8278962" /><node id="230246135" x="144.9916534" y="-37.7829269" /><node id="67804691" x="144.9266126" y="-37.7913929" /><node id="2430775432" x="144.9951575" y="-37.7850614" /><node id="575522449" x="144.9904857" y="-37.7819795" /><node id="583185933" x="144.8953554" y="-37.8246547" /><node id="579370122" x="144.9976382" y="-37.7833601" /><node id="3047691070" x="144.929383" y="-37.78815" /><node id="3047691071" x="144.9293926" y="-37.7882122" /><node id="130175808" x="144.9891723" y="-37.7838938" /><node id="33570436" x="144.9889763" y="-37.781388" /><node id="251444045" x="145.0183068" y="-37.784748" /><node id="1793946448" x="145.0197611" y="-37.782929" /><node id="86686545" x="144.9340819" y="-37.7916033" /><node id="4460254034" x="144.9420499" y="-37.7893197" /><node id="4460254035" x="144.9421265" y="-37.7893295" /><node id="250012682" x="144.8948882" y="-37.8273557" /><node id="67760981" x="144.9277799" y="-37.7894666" /><node id="230504658" x="144.9852813" y="-37.7816238" /><node id="67760984" x="144.9276941" y="-37.7895208" /><node id="3973065564" x="144.8927446" y="-37.8305009" /><node id="3973065565" x="144.8931572" y="-37.8286019" /><node id="723762014" x="145.0041335" y="-37.7845276" /><node id="33448421" x="144.968766" y="-37.7854404" /><node id="723762016" x="145.0041483" y="-37.7845849" /><node id="723762017" x="145.0041483" y="-37.7846421" /><node id="723762019" x="145.004151" y="-37.7848594" /><node id="723762023" x="145.0041697" y="-37.7851593" /><node id="3783290992" x="144.9248846" y="-37.7915743" /><node id="4307006951" x="144.9812166" y="-37.7855961" /><node id="679124797" x="144.9028736" y="-37.8625123" /><node id="147604336" x="144.980685" y="-37.7848443" /><node id="2815000040" x="144.9633951" y="-37.7849909" /><node id="583184531" x="144.9144546" y="-37.7998299" /><node id="335620981" x="144.9999211" y="-37.7836297" /><node id="335620983" x="145.0001255" y="-37.7825382" /><node id="1287463804" x="144.9692586" y="-37.7854887" /><node id="583184533" x="144.9144976" y="-37.7998257" /><node id="1287463813" x="144.9696276" y="-37.7845885" /><node id="249919639" x="144.9206257" y="-37.7940545" /><node id="1975942823" x="144.9910498" y="-37.7824253" /><node id="583184640" x="144.9149401" y="-37.7967043" /><node id="53246104" x="144.9447895" y="-37.7894365" /><node id="1297046419" x="144.9697632" y="-37.7842906" /><node id="3235486777" x="144.9230236" y="-37.7926617" /><node id="53246105" x="144.9461389" y="-37.7893548" /><node id="266079128" x="144.995265" y="-37.7849965" /><node id="244080506" x="144.9016862" y="-37.8546615" /><node id="750763503" x="144.9811549" y="-37.784683" /><node id="319933340" x="144.8716313" y="-37.8312102" /><node id="583184538" x="144.9146538" y="-37.7997891" /><node id="244310943" x="144.9624742" y="-37.7885238" /><node id="244310944" x="144.9626005" y="-37.7882913" /><node id="1287463841" x="144.9701717" y="-37.7843595" /><node id="26680226" x="144.9187958" y="-37.7945109" /><node id="279095452" x="145.0075747" y="-37.7853835" /><node id="33567659" x="144.9713048" y="-37.7844888" /><node id="33567667" x="144.9711357" y="-37.7844695" /><node id="320476087" x="144.8815903" y="-37.8309742" /><node id="319936145" x="144.8672159" y="-37.8332429" /><node id="1297046462" x="144.9700404" y="-37.7843337" /><node id="1297046463" x="144.9695134" y="-37.7842744" /><node id="1297046466" x="144.9695759" y="-37.785486" /><node id="688296900" x="144.9878962" y="-37.7812658" /><node id="244080510" x="144.9023724" y="-37.8569634" /><node id="1297046470" x="144.969666" y="-37.7842811" /><node id="2105473991" x="144.9439781" y="-37.7894346" /><node id="286452003" x="144.9360319" y="-37.7888651" /><node id="2105473993" x="144.9431373" y="-37.7893797" /><node id="2105473994" x="144.943679" y="-37.7894165" /><node id="2105473998" x="144.9443885" y="-37.7894398" /><node id="2097608943" x="144.8949199" y="-37.8271055" /><node id="1287463889" x="144.9696459" y="-37.7844494" /><node id="4922334371" x="144.8955166" y="-37.8454347" /><node id="1297046484" x="144.9698218" y="-37.7842981" /><node id="599266264" x="144.9911796" y="-37.7830852" /><node id="67816409" x="144.9261701" y="-37.7889149" /><node id="67816410" x="144.925411" y="-37.789358" /><node id="86666203" x="144.934416" y="-37.7885152" /><node id="3687613946" x="144.894881" y="-37.8454742" /><node id="4922334373" x="144.8956141" y="-37.8452558" /><node id="32193504" x="144.9573588" y="-37.7896981" /><node id="2088141648" x="144.9903492" y="-37.7834197" /><node id="3687613947" x="144.8948187" y="-37.8456557" /><node id="320477441" x="144.8789594" y="-37.8306786" /><node id="86674407" x="144.9361096" y="-37.78869" /><node id="1436451818" x="145.0066458" y="-37.7795765" /><node id="4922334375" x="144.8959211" y="-37.8451628" /><node id="723760108" x="145.001682" y="-37.7832579" /><node id="2212794607" x="144.996367" y="-37.783202" /><node id="575536113" x="144.9917672" y="-37.7829785" /><node id="2484730866" x="144.9206912" y="-37.7928024" /><node id="2484730867" x="144.9262349" y="-37.7888662" /><node id="2484730868" x="144.9196714" y="-37.7940156" /><node id="7