<edges><edge from="631477263" id="631477263_1691294369" to="1691294369" /><edge from="1691294369" id="1691294369_1888317278" to="1888317278" /><edge from="1888317278" id="1888317278_1793946448" to="1793946448" /><edge from="1793946448" id="1793946448_251443555" to="251443555" /><edge from="251443555" id="251443555_251444045" to="251444045" /><edge from="251444045" id="251444045_251848266" to="251848266" /><edge from="251848266" id="251848266_243962344" to="243962344" /><edge from="243962344" id="243962344_251443995" to="251443995" /><edge from="251443995" id="251443995_243962341" to="243962341" /><edge from="243962341" id="243962341_1430915347" to="1430915347" /><edge from="1430915347" id="1430915347_243962335" to="243962335" /><edge from="243962335" id="243962335_1440096617" to="1440096617" /><edge from="1440096617" id="1440096617_3380347999" to="3380347999" /><edge from="3380347999" id="3380347999_243962332" to="243962332" /><edge from="243962332" id="243962332_1440096616" to="1440096616" /><edge from="1440096616" id="1440096616_1440096629" to="1440096629" /><edge from="1440096629" id="1440096629_1440096628" to="1440096628" /><edge from="1440096628" id="1440096628_1440096635" to="1440096635" /><edge from="1440096635" id="1440096635_1440096640" to="1440096640" /><edge from="1440096640" id="1440096640_1440096641" to="1440096641" /><edge from="1440096641" id="1440096641_475473127" to="475473127" /><edge from="475473127" id="475473127_475473124" to="475473124" /><edge from="475473124" id="475473124_2625460363" to="2625460363" /><edge from="2625460363" id="2625460363_2625460364" to="2625460364" /><edge from="2625460364" id="2625460364_2625460365" to="2625460365" /><edge from="2625460365" id="2625460365_2625460366" to="2625460366" /><edge from="2625460366" id="2625460366_31286885" to="31286885" /><edge from="31286885" id="31286885_279104694" to="279104694" /><edge from="279104694" id="279104694_279104693" to="279104693" /><edge from="279104693" id="279104693_279104692" to="279104692" /><edge from="279104692" id="279104692_279104691" to="279104691" /><edge from="279104691" id="279104691_279104690" to="279104690" /><edge from="279104690" id="279104690_279104689" to="279104689" /><edge from="279104689" id="279104689_279104688" to="279104688" /><edge from="279104688" id="279104688_279104687" to="279104687" /><edge from="279104687" id="279104687_279104686" to="279104686" /><edge from="279104686" id="279104686_279104685" to="279104685" /><edge from="279104685" id="279104685_279104682" to="279104682" /><edge from="279104682" id="279104682_599267663" to="599267663" /><edge from="599267663" id="599267663_599267910" to="599267910" /><edge from="599267910" id="599267910_599267909" to="599267909" /><edge from="599267909" id="599267909_599267908" to="599267908" /><edge from="599267908" id="599267908_599267907" to="599267907" /><edge from="599267907" id="599267907_599267906" to="599267906" /><edge from="599267906" id="599267906_1140238748" to="1140238748" /><edge from="1140238748" id="1140238748_599267963" to="599267963" /><edge from="599267963" id="599267963_266076126" to="266076126" /><edge from="266076126" id="266076126_266076125" to="266076125" /><edge from="266076125" id="266076125_266076124" to="266076124" /><edge from="266076124" id="266076124_111328788" to="111328788" /><edge from="111328788" id="111328788_266076122" to="266076122" /><edge from="266076122" id="266076122_266076120" to="266076120" /><edge from="266076120" id="266076120_599267246" to="599267246" /><edge from="599267246" id="599267246_266076119" to="266076119" /><edge from="266076119" id="266076119_599267451" to="599267451" /><edge from="599267451" id="599267451_599267450" to="599267450" /><edge from="599267450" id="599267450_111328844" to="111328844" /><edge from="111328844" id="111328844_2273421229" to="2273421229" /><edge from="2273421229" id="2273421229_111328881" to="111328881" /><edge from="111328881" id="111328881_2273421230" to="2273421230" /><edge from="2273421230" id="2273421230_599267449" to="599267449" /><edge from="599267449" id="599267449_111328901" to="111328901" /><edge from="111328901" id="111328901_111328924" to="111328924" /><edge from="111328924" id="111328924_282152404" to="282152404" /><edge from="282152404" id="282152404_599267452" to="599267452" /><edge from="599267452" id="599267452_599267354" to="599267354" /><edge from="599267354" id="599267354_599267353" to="599267353" /><edge from="599267353" id="599267353_599267352" to="599267352" /><edge from="599267352" id="599267352_599267195" to="599267195" /><edge from="599267195" id="599267195_111328957" to="111328957" /><edge from="111328957" id="111328957_723797140" to="723797140" /><edge from="723797140" id="723797140_111328976" to="111328976" /><edge from="111328976" id="111328976_723799570" to="723799570" /><edge from="723799570" id="723799570_723799568" to="723799568" /><edge from="723799568" id="723799568_571770022" to="571770022" /><edge from="571770022" id="571770022_723799564" to="723799564" /><edge from="723799564" id="723799564_571770021" to="571770021" /><edge from="571770021" id="571770021_723799558" to="723799558" /><edge from="723799558" id="723799558_111328996" to="111328996" /><edge from="111328996" id="111328996_723799926" to="723799926" /><edge from="723799926" id="723799926_571784820" to="571784820" /><edge from="571784820" id="571784820_723802387" to="723802387" /><edge from="723802387" id="723802387_723802881" to="723802881" /><edge from="723802881" id="723802881_230362084" to="230362084" /><edge from="230362084" id="230362084_723803360" to="723803360" /><edge from="723803360" id="723803360_723803357" to="723803357" /><edge from="723803357" id="723803357_723803354" to="723803354" /><edge from="723803354" id="723803354_601307894" to="601307894" /><edge from="601307894" id="601307894_723803349" to="723803349" /><edge from="723803349" id="723803349_4674057364" to="4674057364" /><edge from="4674057364" id="4674057364_601307891" to="601307891" /><edge from="601307891" id="601307891_230362358" to="230362358" /><edge from="230362358" id="230362358_230362154" to="230362154" /><edge from="230362154" id="230362154_3816583490" to="3816583490" /><edge from="3816583490" id="3816583490_230362331" to="230362331" /><edge from="230362331" id="230362331_2174376437" to="2174376437" /><edge from="2174376437" id="2174376437_230362369" to="230362369" /><edge from="230362369" id="230362369_2337129975" to="2337129975" /><edge from="2337129975" id="2337129975_2337129969" to="2337129969" /><edge from="2337129969" id="2337129969_230362379" to="230362379" /><edge from="230362379" id="230362379_1132071797" to="1132071797" /><edge from="1132071797" id="1132071797_2337129972" to="2337129972" /><edge from="2337129972" id="2337129972_230382051" to="230382051" /><edge from="230382051" id="230382051_38778730" to="38778730" /><edge from="38778730" id="38778730_723825622" to="723825622" /><edge from="723825622" id="723825622_1519470982" to="1519470982" /><edge from="1519470982" id="1519470982_60019405" to="60019405" /><edge from="60019405" id="60019405_1519470986" to="1519470986" /><edge from="1519470986" id="1519470986_1519470931" to="1519470931" /><edge from="1519470931" id="1519470931_266076304" to="266076304" /><edge from="266076304" id="266076304_1519470989" to="1519470989" /><edge from="1519470989" id="1519470989_266725523" to="266725523" /><edge from="266725523" id="266725523_827528933" to="827528933" /><edge from="827528933" id="827528933_474534320" to="474534320" /><edge from="474534320" id="474534320_60019331" to="60019331" /><edge from="60019331" id="60019331_810953164" to="810953164" /><edge from="810953164" id="810953164_1519470918" to="1519470918" /><edge from="1519470918" id="1519470918_1965865396" to="1965865396" /><edge from="1965865396" id="1965865396_1965865389" to="1965865389" /><edge from="1965865389" id="1965865389_1965865392" to="1965865392" /><edge from="1965865392" id="1965865392_370959804" to="370959804" /><edge from="370959804" id="370959804_151434803" to="151434803" /><edge from="151434803" id="151434803_1965865387" to="1965865387" /><edge from="1965865387" id="1965865387_151434830" to="151434830" /><edge from="151434830" id="151434830_3311863660" to="3311863660" /><edge from="3311863660" id="3311863660_3311863659" to="3311863659" /><edge from="3311863659" id="3311863659_3311863658" to="3311863658" /><edge from="3311863658" id="3311863658_248969197" to="248969197" /><edge from="248969197" id="248969197_1519470760" to="1519470760" /><edge from="1519470760" id="1519470760_227324606" to="227324606" /><edge from="227324606" id="227324606_356474935" to="356474935" /><edge from="356474935" id="356474935_227324666" to="227324666" /><edge from="227324666" id="227324666_356474868" to="356474868" /><edge from="356474868" id="356474868_30287517" to="30287517" /><edge from="30287517" id="30287517_356474514" to="356474514" /><edge from="356474514" id="356474514_227324563" to="227324563" /><edge from="227324563" id="227324563_356474318" to="356474318" /><edge from="356474318" id="356474318_227324482" to="227324482" /><edge from="227324482" id="227324482_356474249" to="356474249" /><edge from="356474249" id="356474249_356474167" to="356474167" /><edge from="356474167" id="356474167_227324395" to="227324395" /><edge from="227324395" id="227324395_1404216321" to="1404216321" /><edge from="1404216321" id="1404216321_384012721" to="384012721" /><edge from="384012721" id="384012721_1596911748" to="1596911748" /><edge from="1596911748" id="1596911748_1404216317" to="1404216317" /><edge from="1404216317" id="1404216317_1596911747" to="1596911747" /><edge from="1596911747" id="1596911747_384012724" to="384012724" /><edge from="384012724" id="384012724_227324361" to="227324361" /><edge from="227324361" id="227324361_332127589" to="332127589" /><edge from="332127589" id="332127589_356478170" to="356478170" /><edge from="356478170" id="356478170_227315809" to="227315809" /><edge from="227315809" id="227315809_301549282" to="301549282" /><edge from="301549282" id="301549282_222976606" to="222976606" /><edge from="222976606" id="222976606_301548245" to="301548245" /><edge from="301548245" id="301548245_301548220" to="301548220" /><edge from="301548220" id="301548220_222975383" to="222975383" /><edge from="222975383" id="222975383_2299087305" to="2299087305" /><edge from="2299087305" id="2299087305_332152172" to="332152172" /><edge from="332152172" id="332152172_4936948366" to="4936948366" /><edge from="4936948366" id="4936948366_4936948369" to="4936948369" /><edge from="4936948369" id="4936948369_4936948368" to="4936948368" /><edge from="4936948368" id="4936948368_4936948367" to="4936948367" /><edge from="4936948367" id="4936948367_241807173" to="241807173" /><edge from="241807173" id="241807173_4283908130" to="4283908130" /><edge from="4283908130" id="4283908130_4283908132" to="4283908132" /><edge from="4283908132" id="4283908132_241807175" to="241807175" /><edge from="241807175" id="241807175_3281073171" to="3281073171" /><edge from="3281073171" id="3281073171_3146808114" to="3146808114" /><edge from="3146808114" id="3146808114_241807177" to="241807177" /><edge from="241807177" id="241807177_1713449449" to="1713449449" /><edge from="1713449449" id="1713449449_938091425" to="938091425" /><edge from="938091425" id="938091425_3862791980" to="3862791980" /><edge from="3862791980" id="3862791980_241807179" to="241807179" /><edge from="241807179" id="241807179_370751653" to="370751653" /><edge from="370751653" id="370751653_3862791979" to="3862791979" /><edge from="3862791979" id="3862791979_650276263" to="650276263" /><edge from="650276263" id="650276263_241807183" to="241807183" /><edge from="241807183" id="241807183_241807184" to="241807184" /><edge from="241807184" id="241807184_1879021170" to="1879021170" /><edge from="1879021170" id="1879021170_370750310" to="370750310" /><edge from="370750310" id="370750310_650269874" to="650269874" /><edge from="650269874" id="650269874_241807187" to="241807187" /><edge from="241807187" id="241807187_1517193200" to="1517193200" /><edge from="1517193200" id="1517193200_2302923329" to="2302923329" /><edge from="2302923329" id="2302923329_1449266733" to="1449266733" /><edge from="1449266733" id="1449266733_1449285277" to="1449285277" /><edge from="1449285277" id="1449285277_1449285290" to="1449285290" /><edge from="1449285290" id="1449285290_1449297318" to="1449297318" /><edge from="1449297318" id="1449297318_1449297315" to="1449297315" /><edge from="1449297315" id="1449297315_1449297343" to="1449297343" /><edge from="1449297343" id="1449297343_1449297341" to="1449297341" /><edge from="1449297341" id="1449297341_1449297306" to="1449297306" /><edge from="1449297306" id="1449297306_1449297335" to="1449297335" /><edge from="1449297335" id="1449297335_1449297320" to="1449297320" /><edge from="1449297320" id="1449297320_1449297327" to="1449297327" /><edge from="1449297327" id="1449297327_1449295066" to="1449295066" /><edge from="1449295066" id="1449295066_3281070335" to="3281070335" /><edge from="3281070335" id="3281070335_1449297326" to="1449297326" /><edge from="1449297326" id="1449297326_1449297319" to="1449297319" /><edge from="1449297319" id="1449297319_1449297301" to="1449297301" /><edge from="1449297301" id="1449297301_1449297324" to="1449297324" /><edge from="1449297324" id="1449297324_1449297336" to="1449297336" /><edge from="1449297336" id="1449297336_1449355160" to="1449355160" /><edge from="1449355160" id="1449355160_1449355138" to="1449355138" /><edge from="1449355138" id="1449355138_1449355162" to="1449355162" /><edge from="1449355162" id="1449355162_1449355145" to="1449355145" /><edge from="1449355145" id="1449355145_741702068" to="741702068" /><edge from="741702068" id="741702068_1449355158" to="1449355158" /><edge from="1449355158" id="1449355158_1449431589" to="1449431589" /><edge from="1449431589" id="1449431589_1449431623" to="1449431623" /><edge from="1449431623" id="1449431623_1449431263" to="1449431263" /><edge from="1449431263" id="1449431263_1449431533" to="1449431533" /><edge from="1449431533" id="1449431533_1449431504" to="1449431504" /><edge from="1449431504" id="1449431504_1449431574" to="1449431574" /><edge from="1449431574" id="1449431574_3882858133" to="3882858133" /><edge from="3882858133" id="3882858133_246076367" to="246076367" /><edge from="246076367" id="246076367_663497790" to="663497790" /><edge from="663497790" id="663497790_1449355163" to="1449355163" /><edge from="1449355163" id="1449355163_252588303" to="252588303" /><edge from="252588303" id="252588303_576877847" to="576877847" /><edge from="576877847" id="576877847_1449355165" to="1449355165" /><edge from="1449355165" id="1449355165_2173154655" to="2173154655" /><edge from="2173154655" id="2173154655_1985557938" to="1985557938" /><edge from="1985557938" id="1985557938_1833110301" to="1833110301" /><edge from="1833110301" id="1833110301_1525908946" to="1525908946" /><edge from="1525908946" id="1525908946_1833110294" to="1833110294" /><edge from="1833110294" id="1833110294_2774214269" to="2774214269" /><edge from="2774214269" id="2774214269_1833110267" to="1833110267" /><edge from="1833110267" id="1833110267_4329375111" to="4329375111" /><edge from="4329375111" id="4329375111_2383211239" to="2383211239" /><edge from="2383211239" id="2383211239_3313134377" to="3313134377" /><edge from="3313134377" id="3313134377_1838361809" to="1838361809" /><edge from="1838361809" id="1838361809_2187874243" to="2187874243" /><edge from="2187874243" id="2187874243_1833110298" to="1833110298" /><edge from="1833110298" id="1833110298_3313134378" to="3313134378" /><edge from="3313134378" id="3313134378_2383211240" to="2383211240" /><edge from="2383211240" id="2383211240_3313134384" to="3313134384" /><edge from="3313134384" id="3313134384_1964021893" to="1964021893" /><edge from="1964021893" id="1964021893_2384091392" to="2384091392" /><edge from="2384091392" id="2384091392_1833110279" to="1833110279" /><edge from="1833110279" id="1833110279_2384091393" to="2384091393" /><edge from="2384091393" id="2384091393_2384091394" to="2384091394" /><edge from="2384091394" id="2384091394_1833110269" to="1833110269" /><edge from="1833110269" id="1833110269_2384091395" to="2384091395" /><edge from="2384091395" id="2384091395_2165149751" to="2165149751" /><edge from="2165149751" id="2165149751_3394729660" to="3394729660" /><edge from="3394729660" id="3394729660_1833110318" to="1833110318" /><edge from="1833110318" id="1833110318_591430026" to="591430026" /><edge from="591430026" id="591430026_1833110282" to="1833110282" /><edge from="1833110282" id="1833110282_3954626857" to="3954626857" /><edge from="3954626857" id="3954626857_591426700" to="591426700" /><edge from="591426700" id="591426700_1833110288" to="1833110288" /><edge from="1833110288" id="1833110288_2325395502" to="2325395502" /><edge from="2325395502" id="2325395502_1833110274" to="1833110274" /><edge from="1833110274" id="1833110274_3945796019" to="3945796019" /><edge from="3945796019" id="3945796019_591411887" to="591411887" /><edge from="591411887" id="591411887_591408731" to="591408731" /><edge from="591408731" id="591408731_4520380551" to="4520380551" /><edge from="4520380551" id="4520380551_4520380552" to="4520380552" /><edge from="4520380552" id="4520380552_591408716" to="591408716" /><edge from="591408716" id="591408716_591415229" to="591415229" /><edge from="591415229" id="591415229_591408730" to="591408730" /><edge from="591408730" id="591408730_1833110275" to="1833110275" /><edge from="1833110275" id="1833110275_1833110277" to="1833110277" /><edge from="1833110277" id="1833110277_3394728756" to="3394728756" /><edge from="3394728756" id="3394728756_1833110304" to="1833110304" /><edge from="1833110304" id="1833110304_1833110268" to="1833110268" /><edge from="1833110268" id="1833110268_589501828" to="589501828" /><edge from="589501828" id="589501828_1479897558" to="1479897558" /><edge from="1479897558" id="1479897558_1479897577" to="1479897577" /><edge from="1479897577" id="1479897577_589501836" to="589501836" /><edge from="589501836" id="589501836_589500041" to="589500041" /><edge from="589500041" id="589500041_589502843" to="589502843" /><edge from="589502843" id="589502843_144720206" to="144720206" /><edge from="144720206" id="144720206_144720284" to="144720284" /><edge from="144720284" id="144720284_3945796023" to="3945796023" /><edge from="3945796023" id="3945796023_589708357" to="589708357" /><edge from="589708357" id="589708357_1479930110" to="1479930110" /><edge from="1479930110" id="1479930110_1479930094" to="1479930094" /><edge from="1479930094" id="1479930094_1479930096" to="1479930096" /><edge from="1479930096" id="1479930096_1479930075" to="1479930075" /><edge from="1479930075" id="1479930075_1479930080" to="1479930080" /><edge from="1479930080" id="1479930080_1479930102" to="1479930102" /><edge from="1479930102" id="1479930102_589742849" to="589742849" /><edge from="589742849" id="589742849_122705655" to="122705655" /><edge from="122705655" id="122705655_122705653" to="122705653" /><edge from="122705653" id="122705653_589747750" to="589747750" /><edge from="589747750" id="589747750_122705652" to="122705652" /><edge from="122705652" id="122705652_3954625845" to="3954625845" /><edge from="3954625845" id="3954625845_122705651" to="122705651" /><edge from="122705651" id="122705651_122705650" to="122705650" /><edge from="122705650" id="122705650_2202858914" to="2202858914" /><edge from="2202858914" id="2202858914_122705649" to="122705649" /><edge from="122705649" id="122705649_1833115725" to="1833115725" /><edge from="1833115725" id="1833115725_571730517" to="571730517" /><edge from="571730517" id="571730517_589759848" to="589759848" /><edge from="589759848" id="589759848_571730515" to="571730515" /><edge from="571730515" id="571730515_589763571" to="589763571" /><edge from="589763571" id="589763571_571730500" to="571730500" /><edge from="571730500" id="571730500_571730499" to="571730499" /><edge from="571730499" id="571730499_571730561" to="571730561" /><edge from="571730561" id="571730561_571730497" to="571730497" /><edge from="571730497" id="571730497_760180046" to="760180046" /><edge from="760180046" id="760180046_760180049" to="760180049" /><edge from="760180049" id="760180049_36823171" to="36823171" /><edge from="36823171" id="36823171_92137424" to="92137424" /><edge from="92137424" id="92137424_760180221" to="760180221" /><edge from="760180221" id="760180221_760180357" to="760180357" /><edge from="760180357" id="760180357_36823169" to="36823169" /><edge from="36823169" id="36823169_36823168" to="36823168" /><edge from="36823168" id="36823168_4017192797" to="4017192797" /><edge from="4017192797" id="4017192797_36823167" to="36823167" /><edge from="36823167" id="36823167_36823166" to="36823166" /><edge from="36823166" id="36823166_36823165" to="36823165" /><edge from="36823165" id="36823165_36823164" to="36823164" /><edge from="36823164" id="36823164_36823163" to="36823163" /><edge from="36823163" id="36823163_4017192795" to="4017192795" /><edge from="4017192795" id="4017192795_36823162" to="36823162" /><edge from="36823162" id="36823162_4017192796" to="4017192796" /><edge from="4017192796" id="4017192796_4017190011" to="4017190011" /><edge from="4017190011" id="4017190011_36823161" to="36823161" /><edge from="36823161" id="36823161_36823160" to="36823160" /><edge from="36823160" id="36823160_1883787497" to="1883787497" /><edge from="1883787497" id="1883787497_36824897" to="36824897" /><edge from="36824897" id="36824897_1883787524" to="1883787524" /><edge from="1883787524" id="1883787524_1883787542" to="1883787542" /><edge from="1883787542" id="1883787542_3863773230" to="3863773230" /><edge from="3863773230" id="3863773230_452352495" to="452352495" /><edge from="452352495" id="452352495_3863773226" to="3863773226" /><edge from="3863773226" id="3863773226_452360251" to="452360251" /><edge from="452360251" id="452360251_452360250" to="452360250" /><edge from="452360250" id="452360250_452355073" to="452355073" /><edge from="452355073" id="452355073_452355072" to="452355072" /><edge from="452355072" id="452355072_452355071" to="452355071" /><edge from="452355071" id="452355071_452355070" to="452355070" /><edge from="452355070" id="452355070_452355069" to="452355069" /><edge from="452355069" id="452355069_2941334795" to="2941334795" /><edge from="2941334795" id="2941334795_452355079" to="452355079" /><edge from="452355079" id="452355079_3285613595" to="3285613595" /><edge from="3285613595" id="3285613595_36818957" to="36818957" /><edge from="36818957" id="36818957_36818955" to="36818955" /><edge from="36818955" id="36818955_683097314" to="683097314" /><edge from="683097314" id="683097314_683097311" to="683097311" /><edge from="683097311" id="683097311_36818954" to="36818954" /><edge from="36818954" id="36818954_21578128" to="21578128" /><edge from="21578128" id="21578128_242399639" to="242399639" /><edge from="242399639" id="242399639_3910226774" to="3910226774" /><edge from="3910226774" id="3910226774_26476366" to="26476366" /><edge from="26476366" id="26476366_26476362" to="26476362" /><edge from="26476362" id="26476362_26476812" to="26476812" /><edge from="26476812" id="26476812_4316749791" to="4316749791" /><edge from="4316749791" id="4316749791_683095451" to="683095451" /><edge from="683095451" id="683095451_26476358" to="26476358" /><edge from="26476358" id="26476358_242328255" to="242328255" /><edge from="242328255" id="242328255_683095449" to="683095449" /><edge from="683095449" id="683095449_242328254" to="242328254" /><edge from="242328254" id="242328254_683082983" to="683082983" /><edge from="683082983" id="683082983_242328252" to="242328252" /><edge from="242328252" id="242328252_683083024" to="683083024" /><edge from="683083024" id="683083024_683083023" to="683083023" /><edge from="683083023" id="683083023_683083022" to="683083022" /><edge from="683083022" id="683083022_26476355" to="26476355" /><edge from="26476355" id="26476355_683086362" to="683086362" /><edge from="683086362" id="683086362_683086598" to="683086598" /><edge from="683086598" id="683086598_683086258" to="683086258" /><edge from="683086258" id="683086258_242328246" to="242328246" /><edge from="242328246" id="242328246_242328245" to="242328245" /><edge from="242328245" id="242328245_242327164" to="242327164" /><edge from="242327164" id="242327164_242327162" to="242327162" /><edge from="242327162" id="242327162_122716023" to="122716023" /><edge from="122716023" id="122716023_41678143" to="41678143" /><edge from="41678143" id="41678143_41678142" to="41678142" /><edge from="41678142" id="41678142_242326587" to="242326587" /><edge from="242326587" id="242326587_2080447171" to="2080447171" /><edge from="2080447171" id="2080447171_3319940275" to="3319940275" /><edge from="3319940275" id="3319940275_2080447173" to="2080447173" /><edge from="2080447173" id="2080447173_3319940273" to="3319940273" /><edge from="3319940273" id="3319940273_41678140" to="41678140" /><edge from="41678140" id="41678140_26476340" to="26476340" /><edge from="26476340" id="26476340_41677620" to="41677620" /><edge from="41677620" id="41677620_2080791960" to="2080791960" /><edge from="2080791960" id="2080791960_41677618" to="41677618" /><edge from="41677618" id="41677618_41677617" to="41677617" /><edge from="41677617" id="41677617_26476334" to="26476334" /><edge from="26476334" id="26476334_2080791971" to="2080791971" /><edge from="2080791971" id="2080791971_41677526" to="41677526" /><edge from="41677526" id="41677526_41677524" to="41677524" /><edge from="41677524" id="41677524_2080791977" to="2080791977" /><edge from="2080791977" id="2080791977_41677523" to="41677523" /><edge from="41677523" id="41677523_26476321" to="26476321" /><edge from="26476321" id="26476321_2080791975" to="2080791975" /><edge from="2080791975" id="2080791975_2080791006" to="2080791006" /><edge from="2080791006" id="2080791006_26476316" to="26476316" /><edge from="26476316" id="26476316_3200751429" to="3200751429" /><edge from="3200751429" id="3200751429_26476300" to="26476300" /><edge from="26476300" id="26476300_2080791003" to="2080791003" /><edge from="2080791003" id="2080791003_2080791335" to="2080791335" /><edge from="2080791335" id="2080791335_122714810" to="122714810" /><edge from="122714810" id="122714810_122714809" to="122714809" /><edge from="122714809" id="122714809_2080791334" to="2080791334" /><edge from="2080791334" id="2080791334_26476298" to="26476298" /><edge from="26476298" id="26476298_2080791336" to="2080791336" /><edge from="2080791336" id="2080791336_122714403" to="122714403" /><edge from="122714403" id="122714403_122714402" to="122714402" /><edge from="122714402" id="122714402_122714401" to="122714401" /><edge from="122714401" id="122714401_26476296" to="26476296" /><edge from="26476296" id="26476296_3074633688" to="3074633688" /><edge from="3074633688" id="3074633688_122716696" to="122716696" /><edge from="122716696" id="122716696_122822303" to="122822303" /><edge from="122822303" id="122822303_2080791007" to="2080791007" /><edge from="2080791007" id="2080791007_415860576" to="415860576" /><edge from="415860576" id="415860576_122822302" to="122822302" /><edge from="122822302" id="122822302_122822300" to="122822300" /><edge from="122822300" id="122822300_122822299" to="122822299" /><edge from="122822299" id="122822299_4864350301" to="4864350301" /><edge from="4864350301" id="4864350301_2081963682" to="2081963682" /><edge from="2081963682" id="2081963682_2081963686" to="2081963686" /><edge from="2081963686" id="2081963686_1833146775" to="1833146775" /><edge from="1833146775" id="1833146775_2951925533" to="2951925533" /><edge from="2951925533" id="2951925533_122718177" to="122718177" /><edge from="122718177" id="122718177_295871816" to="295871816" /><edge from="295871816" id="295871816_4273075065" to="4273075065" /><edge from="4273075065" id="4273075065_2951925540" to="2951925540" /><edge from="2951925540" id="2951925540_2951925537" to="2951925537" /><edge from="2951925537" id="2951925537_4428399217" to="4428399217" /><edge from="4428399217" id="4428399217_122820053" to="122820053" /><edge from="122820053" id="122820053_4273075066" to="4273075066" /><edge from="4273075066" id="4273075066_122718190" to="122718190" /><edge from="122718190" id="122718190_122823005" to="122823005" /><edge from="122823005" id="122823005_5400554384" to="5400554384" /><edge from="5400554384" id="5400554384_122718188" to="122718188" /><edge from="122718188" id="122718188_320477726" to="320477726" /><edge from="320477726" id="320477726_320477725" to="320477725" /><edge from="320477725" id="320477725_3950822288" to="3950822288" /><edge from="3950822288" id="3950822288_320477723" to="320477723" /><edge from="320477723" id="320477723_3950822289" to="3950822289" /><edge from="3950822289" id="3950822289_320477665" to="320477665" /><edge from="320477665" id="320477665_320477594" to="320477594" /><edge from="320477594" id="320477594_320477756" to="320477756" /><edge from="320477756" id="320477756_320477879" to="320477879" /><edge from="320477879" id="320477879_320476605" to="320476605" /><edge from="320476605" id="320476605_320478099" to="320478099" /><edge from="320478099" id="320478099_320476719" to="320476719" /><edge from="320476719" id="320476719_320478215" to="320478215" /><edge from="320478215" id="320478215_320476979" to="320476979" /><edge from="320476979" id="320476979_320478300" to="320478300" /><edge from="320478300" id="320478300_320477205" to="320477205" /><edge from="320477205" id="320477205_2103616479" to="2103616479" /><edge from="2103616479" id="2103616479_2103616478" to="2103616478" /><edge from="2103616478" id="2103616478_320477035" to="320477035" /><edge from="320477035" id="320477035_320477034" to="320477034" /><edge from="320477034" id="320477034_588141936" to="588141936" /><edge from="588141936" id="588141936_31993444