<edges><edge from="631477263" id="631477263_1691294369" to="1691294369" /><edge from="1691294369" id="1691294369_1888317278" to="1888317278" /><edge from="1888317278" id="1888317278_1793946448" to="1793946448" /><edge from="1793946448" id="1793946448_251443555" to="251443555" /><edge from="251443555" id="251443555_251444045" to="251444045" /><edge from="251444045" id="251444045_251848266" to="251848266" /><edge from="251848266" id="251848266_243962344" to="243962344" /><edge from="243962344" id="243962344_251443995" to="251443995" /><edge from="251443995" id="251443995_243962341" to="243962341" /><edge from="243962341" id="243962341_1430915347" to="1430915347" /><edge from="1430915347" id="1430915347_243962335" to="243962335" /><edge from="243962335" id="243962335_1440096617" to="1440096617" /><edge from="1440096617" id="1440096617_3380347999" to="3380347999" /><edge from="3380347999" id="3380347999_243962332" to="243962332" /><edge from="243962332" id="243962332_1440096616" to="1440096616" /><edge from="1440096616" id="1440096616_1440096629" to="1440096629" /><edge from="1440096629" id="1440096629_1440096614" to="1440096614" /><edge from="1440096614" id="1440096614_1440096637" to="1440096637" /><edge from="1440096637" id="1440096637_243962329" to="243962329" /><edge from="243962329" id="243962329_1440096633" to="1440096633" /><edge from="1440096633" id="1440096633_243962326" to="243962326" /><edge from="243962326" id="243962326_1440096631" to="1440096631" /><edge from="1440096631" id="1440096631_243962323" to="243962323" /><edge from="243962323" id="243962323_1440096634" to="1440096634" /><edge from="1440096634" id="1440096634_243962318" to="243962318" /><edge from="243962318" id="243962318_479783451" to="479783451" /><edge from="479783451" id="479783451_4674069696" to="4674069696" /><edge from="4674069696" id="4674069696_479783442" to="479783442" /><edge from="479783442" id="479783442_479783412" to="479783412" /><edge from="479783412" id="479783412_479783417" to="479783417" /><edge from="479783417" id="479783417_2625460169" to="2625460169" /><edge from="2625460169" id="2625460169_479783424" to="479783424" /><edge from="479783424" id="479783424_1440096622" to="1440096622" /><edge from="1440096622" id="1440096622_3781562089" to="3781562089" /><edge from="3781562089" id="3781562089_3781562083" to="3781562083" /><edge from="3781562083" id="3781562083_3781562087" to="3781562087" /><edge from="3781562087" id="3781562087_3781562093" to="3781562093" /><edge from="3781562093" id="3781562093_3781562092" to="3781562092" /><edge from="3781562092" id="3781562092_3781562091" to="3781562091" /><edge from="3781562091" id="3781562091_3781562084" to="3781562084" /><edge from="3781562084" id="3781562084_3781562086" to="3781562086" /><edge from="3781562086" id="3781562086_3781562090" to="3781562090" /><edge from="3781562090" id="3781562090_3781562085" to="3781562085" /><edge from="3781562085" id="3781562085_1389508658" to="1389508658" /><edge from="1389508658" id="1389508658_4605264194" to="4605264194" /><edge from="4605264194" id="4605264194_127715644" to="127715644" /><edge from="127715644" id="127715644_4605264193" to="4605264193" /><edge from="4605264193" id="4605264193_599267924" to="599267924" /><edge from="599267924" id="599267924_599267918" to="599267918" /><edge from="599267918" id="599267918_599267919" to="599267919" /><edge from="599267919" id="599267919_599267920" to="599267920" /><edge from="599267920" id="599267920_599267921" to="599267921" /><edge from="599267921" id="599267921_599267922" to="599267922" /><edge from="599267922" id="599267922_599267923" to="599267923" /><edge from="599267923" id="599267923_599267889" to="599267889" /><edge from="599267889" id="599267889_279095452" to="279095452" /><edge from="279095452" id="279095452_279095451" to="279095451" /><edge from="279095451" id="279095451_279095450" to="279095450" /><edge from="279095450" id="279095450_279095449" to="279095449" /><edge from="279095449" id="279095449_279095448" to="279095448" /><edge from="279095448" id="279095448_279095447" to="279095447" /><edge from="279095447" id="279095447_279095446" to="279095446" /><edge from="279095446" id="279095446_279095445" to="279095445" /><edge from="279095445" id="279095445_279095429" to="279095429" /><edge from="279095429" id="279095429_3373078241" to="3373078241" /><edge from="3373078241" id="3373078241_1374354442" to="1374354442" /><edge from="1374354442" id="1374354442_279095428" to="279095428" /><edge from="279095428" id="279095428_279095443" to="279095443" /><edge from="279095443" id="279095443_279095442" to="279095442" /><edge from="279095442" id="279095442_279095441" to="279095441" /><edge from="279095441" id="279095441_723762616" to="723762616" /><edge from="723762616" id="723762616_723762613" to="723762613" /><edge from="723762613" id="723762613_31286868" to="31286868" /><edge from="31286868" id="31286868_723762023" to="723762023" /><edge from="723762023" id="723762023_31286867" to="31286867" /><edge from="31286867" id="31286867_723762019" to="723762019" /><edge from="723762019" id="723762019_571803229" to="571803229" /><edge from="571803229" id="571803229_723762017" to="723762017" /><edge from="723762017" id="723762017_723762016" to="723762016" /><edge from="723762016" id="723762016_723762014" to="723762014" /><edge from="723762014" id="723762014_723760934" to="723760934" /><edge from="723760934" id="723760934_571803232" to="571803232" /><edge from="571803232" id="571803232_31286865" to="31286865" /><edge from="31286865" id="31286865_599266886" to="599266886" /><edge from="599266886" id="599266886_599266883" to="599266883" /><edge from="599266883" id="599266883_31286862" to="31286862" /><edge from="31286862" id="31286862_723760196" to="723760196" /><edge from="723760196" id="723760196_723760190" to="723760190" /><edge from="723760190" id="723760190_723760185" to="723760185" /><edge from="723760185" id="723760185_723760180" to="723760180" /><edge from="723760180" id="723760180_723760151" to="723760151" /><edge from="723760151" id="723760151_723760144" to="723760144" /><edge from="723760144" id="723760144_723760138" to="723760138" /><edge from="723760138" id="723760138_723760132" to="723760132" /><edge from="723760132" id="723760132_723760128" to="723760128" /><edge from="723760128" id="723760128_723760122" to="723760122" /><edge from="723760122" id="723760122_723760117" to="723760117" /><edge from="723760117" id="723760117_723760113" to="723760113" /><edge from="723760113" id="723760113_723760108" to="723760108" /><edge from="723760108" id="723760108_31286848" to="31286848" /><edge from="31286848" id="31286848_31286842" to="31286842" /><edge from="31286842" id="31286842_723759288" to="723759288" /><edge from="723759288" id="723759288_723759286" to="723759286" /><edge from="723759286" id="723759286_31286835" to="31286835" /><edge from="31286835" id="31286835_723758728" to="723758728" /><edge from="723758728" id="723758728_723759278" to="723759278" /><edge from="723759278" id="723759278_31286829" to="31286829" /><edge from="31286829" id="31286829_31286821" to="31286821" /><edge from="31286821" id="31286821_258051684" to="258051684" /><edge from="258051684" id="258051684_335620981" to="335620981" /><edge from="335620981" id="335620981_258051685" to="258051685" /><edge from="258051685" id="258051685_2808854960" to="2808854960" /><edge from="2808854960" id="2808854960_559301795" to="559301795" /><edge from="559301795" id="559301795_2808854973" to="2808854973" /><edge from="2808854973" id="2808854973_2808854971" to="2808854971" /><edge from="2808854971" id="2808854971_2808854972" to="2808854972" /><edge from="2808854972" id="2808854972_2808854976" to="2808854976" /><edge from="2808854976" id="2808854976_3187857298" to="3187857298" /><edge from="3187857298" id="3187857298_3187857299" to="3187857299" /><edge from="3187857299" id="3187857299_3187857300" to="3187857300" /><edge from="3187857300" id="3187857300_2808854975" to="2808854975" /><edge from="2808854975" id="2808854975_277328636" to="277328636" /><edge from="277328636" id="277328636_2808854970" to="2808854970" /><edge from="2808854970" id="2808854970_2368006574" to="2368006574" /><edge from="2368006574" id="2368006574_277328578" to="277328578" /><edge from="277328578" id="277328578_1435070804" to="1435070804" /><edge from="1435070804" id="1435070804_4307007242" to="4307007242" /><edge from="4307007242" id="4307007242_4307007241" to="4307007241" /><edge from="4307007241" id="4307007241_2212789806" to="2212789806" /><edge from="2212789806" id="2212789806_4307007244" to="4307007244" /><edge from="4307007244" id="4307007244_266078702" to="266078702" /><edge from="266078702" id="266078702_266078717" to="266078717" /><edge from="266078717" id="266078717_266079128" to="266079128" /><edge from="266079128" id="266079128_4307007247" to="4307007247" /><edge from="4307007247" id="4307007247_2430775432" to="2430775432" /><edge from="2430775432" id="2430775432_266079453" to="266079453" /><edge from="266079453" id="266079453_1832840604" to="1832840604" /><edge from="1832840604" id="1832840604_575529138" to="575529138" /><edge from="575529138" id="575529138_575529137" to="575529137" /><edge from="575529137" id="575529137_575529136" to="575529136" /><edge from="575529136" id="575529136_230246167" to="230246167" /><edge from="230246167" id="230246167_230246081" to="230246081" /><edge from="230246081" id="230246081_230246108" to="230246108" /><edge from="230246108" id="230246108_575536113" to="575536113" /><edge from="575536113" id="575536113_230246135" to="230246135" /><edge from="230246135" id="230246135_599266264" to="599266264" /><edge from="599266264" id="599266264_5254164662" to="5254164662" /><edge from="5254164662" id="5254164662_448149733" to="448149733" /><edge from="448149733" id="448149733_2088141648" to="2088141648" /><edge from="2088141648" id="2088141648_3109398453" to="3109398453" /><edge from="3109398453" id="3109398453_1942338562" to="1942338562" /><edge from="1942338562" id="1942338562_5255102038" to="5255102038" /><edge from="5255102038" id="5255102038_3109398454" to="3109398454" /><edge from="3109398454" id="3109398454_130175808" to="130175808" /><edge from="130175808" id="130175808_1835235063" to="1835235063" /><edge from="1835235063" id="1835235063_244859445" to="244859445" /><edge from="244859445" id="244859445_2706937424" to="2706937424" /><edge from="2706937424" id="2706937424_2706937435" to="2706937435" /><edge from="2706937435" id="2706937435_2706937425" to="2706937425" /><edge from="2706937425" id="2706937425_2706937456" to="2706937456" /><edge from="2706937456" id="2706937456_2706937438" to="2706937438" /><edge from="2706937438" id="2706937438_2706937423" to="2706937423" /><edge from="2706937423" id="2706937423_1835235058" to="1835235058" /><edge from="1835235058" id="1835235058_1835235056" to="1835235056" /><edge from="1835235056" id="1835235056_2706937421" to="2706937421" /><edge from="2706937421" id="2706937421_2706937437" to="2706937437" /><edge from="2706937437" id="2706937437_33531626" to="33531626" /><edge from="33531626" id="33531626_448174320" to="448174320" /><edge from="448174320" id="448174320_2104032791" to="2104032791" /><edge from="2104032791" id="2104032791_227786879" to="227786879" /><edge from="227786879" id="227786879_33568808" to="33568808" /><edge from="33568808" id="33568808_4307006947" to="4307006947" /><edge from="4307006947" id="4307006947_244856186" to="244856186" /><edge from="244856186" id="244856186_4307006946" to="4307006946" /><edge from="4307006946" id="4307006946_4307007239" to="4307007239" /><edge from="4307007239" id="4307007239_33531628" to="33531628" /><edge from="33531628" id="33531628_147659681" to="147659681" /><edge from="147659681" id="147659681_147660223" to="147660223" /><edge from="147660223" id="147660223_147606699" to="147606699" /><edge from="147606699" id="147606699_243645176" to="243645176" /><edge from="243645176" id="243645176_750763528" to="750763528" /><edge from="750763528" id="750763528_4307007254" to="4307007254" /><edge from="4307007254" id="4307007254_2204477276" to="2204477276" /><edge from="2204477276" id="2204477276_2031349495" to="2031349495" /><edge from="2031349495" id="2031349495_4307006951" to="4307006951" /><edge from="4307006951" id="4307006951_145268763" to="145268763" /><edge from="145268763" id="145268763_4307006950" to="4307006950" /><edge from="4307006950" id="4307006950_147603677" to="147603677" /><edge from="147603677" id="147603677_750743354" to="750743354" /><edge from="750743354" id="750743354_493334520" to="493334520" /><edge from="493334520" id="493334520_750763778" to="750763778" /><edge from="750763778" id="750763778_750763775" to="750763775" /><edge from="750763775" id="750763775_750763772" to="750763772" /><edge from="750763772" id="750763772_493334535" to="493334535" /><edge from="493334535" id="493334535_750763769" to="750763769" /><edge from="750763769" id="750763769_750763768" to="750763768" /><edge from="750763768" id="750763768_750763767" to="750763767" /><edge from="750763767" id="750763767_750763766" to="750763766" /><edge from="750763766" id="750763766_145268764" to="145268764" /><edge from="145268764" id="145268764_2456409737" to="2456409737" /><edge from="2456409737" id="2456409737_4060743921" to="4060743921" /><edge from="4060743921" id="4060743921_2031353418" to="2031353418" /><edge from="2031353418" id="2031353418_2031353431" to="2031353431" /><edge from="2031353431" id="2031353431_4294470717" to="4294470717" /><edge from="4294470717" id="4294470717_2199414688" to="2199414688" /><edge from="2199414688" id="2199414688_4294470775" to="4294470775" /><edge from="4294470775" id="4294470775_4294470774" to="4294470774" /><edge from="4294470774" id="4294470774_2199414701" to="2199414701" /><edge from="2199414701" id="2199414701_4294470716" to="4294470716" /><edge from="4294470716" id="4294470716_222421171" to="222421171" /><edge from="222421171" id="222421171_2200565864" to="2200565864" /><edge from="2200565864" id="2200565864_459518322" to="459518322" /><edge from="459518322" id="459518322_459518343" to="459518343" /><edge from="459518343" id="459518343_459518342" to="459518342" /><edge from="459518342" id="459518342_459518341" to="459518341" /><edge from="459518341" id="459518341_459518323" to="459518323" /><edge from="459518323" id="459518323_459518340" to="459518340" /><edge from="459518340" id="459518340_459518339" to="459518339" /><edge from="459518339" id="459518339_459518338" to="459518338" /><edge from="459518338" id="459518338_99507332" to="99507332" /><edge from="99507332" id="99507332_223078097" to="223078097" /><edge from="223078097" id="223078097_33238905" to="33238905" /><edge from="33238905" id="33238905_34165423" to="34165423" /><edge from="34165423" id="34165423_249216678" to="249216678" /><edge from="249216678" id="249216678_1296963666" to="1296963666" /><edge from="1296963666" id="1296963666_1296963659" to="1296963659" /><edge from="1296963659" id="1296963659_1296963687" to="1296963687" /><edge from="1296963687" id="1296963687_1296963674" to="1296963674" /><edge from="1296963674" id="1296963674_1296963683" to="1296963683" /><edge from="1296963683" id="1296963683_1296963654" to="1296963654" /><edge from="1296963654" id="1296963654_1296963676" to="1296963676" /><edge from="1296963676" id="1296963676_1296963636" to="1296963636" /><edge from="1296963636" id="1296963636_1296963652" to="1296963652" /><edge from="1296963652" id="1296963652_1296963680" to="1296963680" /><edge from="1296963680" id="1296963680_1296963655" to="1296963655" /><edge from="1296963655" id="1296963655_1296963681" to="1296963681" /><edge from="1296963681" id="1296963681_223158212" to="223158212" /><edge from="223158212" id="223158212_223100437" to="223100437" /><edge from="223100437" id="223100437_535030876" to="535030876" /><edge from="535030876" id="535030876_34160614" to="34160614" /><edge from="34160614" id="34160614_249216706" to="249216706" /><edge from="249216706" id="249216706_33567659" to="33567659" /><edge from="33567659" id="33567659_33567667" to="33567667" /><edge from="33567667" id="33567667_249216561" to="249216561" /><edge from="249216561" id="249216561_249216527" to="249216527" /><edge from="249216527" id="249216527_249216525" to="249216525" /><edge from="249216525" id="249216525_1287463841" to="1287463841" /><edge from="1287463841" id="1287463841_1297046462" to="1297046462" /><edge from="1297046462" id="1297046462_1297046484" to="1297046484" /><edge from="1297046484" id="1297046484_1297046419" to="1297046419" /><edge from="1297046419" id="1297046419_1297046385" to="1297046385" /><edge from="1297046385" id="1297046385_1297046470" to="1297046470" /><edge from="1297046470" id="1297046470_1297046463" to="1297046463" /><edge from="1297046463" id="1297046463_1287463882" to="1287463882" /><edge from="1287463882" id="1287463882_1297046441" to="1297046441" /><edge from="1297046441" id="1297046441_33448422" to="33448422" /><edge from="33448422" id="33448422_302123263" to="302123263" /><edge from="302123263" id="302123263_302123264" to="302123264" /><edge from="302123264" id="302123264_1294040354" to="1294040354" /><edge from="1294040354" id="1294040354_302123265" to="302123265" /><edge from="302123265" id="302123265_55108601" to="55108601" /><edge from="55108601" id="55108601_33448406" to="33448406" /><edge from="33448406" id="33448406_33448386" to="33448386" /><edge from="33448386" id="33448386_244549079" to="244549079" /><edge from="244549079" id="244549079_2815000040" to="2815000040" /><edge from="2815000040" id="2815000040_33123893" to="33123893" /><edge from="33123893" id="33123893_1294040340" to="1294040340" /><edge from="1294040340" id="1294040340_1294040396" to="1294040396" /><edge from="1294040396" id="1294040396_33123892" to="33123892" /><edge from="33123892" id="33123892_33123891" to="33123891" /><edge from="33123891" id="33123891_33123890" to="33123890" /><edge from="33123890" id="33123890_1294040360" to="1294040360" /><edge from="1294040360" id="1294040360_33123889" to="33123889" /><edge from="33123889" id="33123889_33240669" to="33240669" /><edge from="33240669" id="33240669_2395733186" to="2395733186" /><edge from="2395733186" id="2395733186_2395733188" to="2395733188" /><edge from="2395733188" id="2395733188_33240668" to="33240668" /><edge from="33240668" id="33240668_2395733187" to="2395733187" /><edge from="2395733187" id="2395733187_3221110918" to="3221110918" /><edge from="3221110918" id="3221110918_3221110919" to="3221110919" /><edge from="3221110919" id="3221110919_3221110920" to="3221110920" /><edge from="3221110920" id="3221110920_3221110921" to="3221110921" /><edge from="3221110921" id="3221110921_3221110922" to="3221110922" /><edge from="3221110922" id="3221110922_53865740" to="53865740" /><edge from="53865740" id="53865740_2209383418" to="2209383418" /><edge from="2209383418" id="2209383418_4326397441" to="4326397441" /><edge from="4326397441" id="4326397441_4326397440" to="4326397440" /><edge from="4326397440" id="4326397440_2209383462" to="2209383462" /><edge from="2209383462" id="2209383462_53865717" to="53865717" /><edge from="53865717" id="53865717_3374126181" to="3374126181" /><edge from="3374126181" id="3374126181_457840492" to="457840492" /><edge from="457840492" id="457840492_32193504" to="32193504" /><edge from="32193504" id="32193504_3318598895" to="3318598895" /><edge from="3318598895" id="3318598895_3318598893" to="3318598893" /><edge from="3318598893" id="3318598893_53865685" to="53865685" /><edge from="53865685" id="53865685_3318598892" to="3318598892" /><edge from="3318598892" id="3318598892_53865676" to="53865676" /><edge from="53865676" id="53865676_3318598894" to="3318598894" /><edge from="3318598894" id="3318598894_3318598890" to="3318598890" /><edge from="3318598890" id="3318598890_3318598881" to="3318598881" /><edge from="3318598881" id="3318598881_3318598897" to="3318598897" /><edge from="3318598897" id="3318598897_3318598891" to="3318598891" /><edge from="3318598891" id="3318598891_3318598884" to="3318598884" /><edge from="3318598884" id="3318598884_3318598885" to="3318598885" /><edge from="3318598885" id="3318598885_3318598889" to="3318598889" /><edge from="3318598889" id="3318598889_3318598896" to="3318598896" /><edge from="3318598896" id="3318598896_3318598883" to="3318598883" /><edge from="3318598883" id="3318598883_3318598887" to="3318598887" /><edge from="3318598887" id="3318598887_53865588" to="53865588" /><edge from="53865588" id="53865588_525355257" to="525355257" /><edge from="525355257" id="525355257_53865576" to="53865576" /><edge from="53865576" id="53865576_53865567" to="53865567" /><edge from="53865567" id="53865567_1833134506" to="1833134506" /><edge from="1833134506" id="1833134506_53246139" to="53246139" /><edge from="53246139" id="53246139_53246135" to="53246135" /><edge from="53246135" id="53246135_53246131" to="53246131" /><edge from="53246131" id="53246131_53246129" to="53246129" /><edge from="53246129" id="53246129_33574566" to="33574566" /><edge from="33574566" id="33574566_1280017714" to="1280017714" /><edge from="1280017714" id="1280017714_1280017765" to="1280017765" /><edge from="1280017765" id="1280017765_1280017896" to="1280017896" /><edge from="1280017896" id="1280017896_3318597900" to="3318597900" /><edge from="3318597900" id="3318597900_53246113" to="53246113" /><edge from="53246113" id="53246113_3318597902" to="3318597902" /><edge from="3318597902" id="3318597902_3318597906" to="3318597906" /><edge from="3318597906" id="3318597906_3318597898" to="3318597898" /><edge from="3318597898" id="3318597898_53246108" to="53246108" /><edge from="53246108" id="53246108_3318597905" to="3318597905" /><edge from="3318597905" id="3318597905_53246105" to="53246105" /><edge from="53246105" id="53246105_53246100" to="53246100" /><edge from="53246100" id="53246100_53246122" to="53246122" /><edge from="53246122" id="53246122_53246104" to="53246104" /><edge from="53246104" id="53246104_2105473998" to="2105473998" /><edge from="2105473998" id="2105473998_2105473991" to="2105473991" /><edge from="2105473991" id="2105473991_2105473994" to="2105473994" /><edge from="2105473994" id="2105473994_86656050" to="86656050" /><edge from="86656050" id="86656050_2105473993" to="2105473993" /><edge from="2105473993" id="2105473993_2105470562" to="2105470562" /><edge from="2105470562" id="2105470562_86658354" to="86658354" /><edge from="86658354" id="86658354_2105470583" to="2105470583" /><edge from="2105470583" id="2105470583_4460254035" to="4460254035" /><edge from="4460254035" id="4460254035_4460254034" to="4460254034" /><edge from="4460254034" id="4460254034_2105470559" to="2105470559" /><edge from="2105470559" id="2105470559_2105449021" to="2105449021" /><edge from="2105449021" id="2105449021_3873155060" to="3873155060" /><edge from="3873155060" id="3873155060_127627640" to="127627640" /><edge from="127627640" id="127627640_1316062834" to="1316062834" /><edge from="1316062834" id="1316062834_373069361" to="373069361" /><edge from="373069361" id="373069361_1316062877" to="1316062877" /><edge from="1316062877" id="1316062877_251084139" to="251084139" /><edge from="251084139" id="251084139_1316038621" to="1316038621" /><edge from="1316038621" id="1316038621_1133260588" to="1133260588" /><edge from="1133260588" id="1133260588_86662136" to="86662136" /><edge from="86662136" id="86662136_962313585" to="962313585" /><edge from="962313585" id="962313585_4889398639" to="4889398639" /><edge from="4889398639" id="4889398639_1315978746" to="1315978746" /><edge from="1315978746" id="1315978746_280918826" to="280918826" /><edge from="280918826" id="280918826_86674407" to="86674407" /><edge from="86674407" id="86674407_86666203" to="86666203" /><edge from="86666203" id="86666203_86667088" to="86667088" /><edge from="86667088" id="86667088_4795977695" to="4795977695" /><edge from="4795977695" id="4795977695_2227463895" to="2227463895" /><edge from="2227463895" id="2227463895_2227463871" to="2227463871" /><edge from="2227463871" id="2227463871_2227463891" to="2227463891" /><edge from="2227463891" id="2227463891_2227463855" to="2227463855" /><edge from="2227463855" id="2227463855_4457663259" to="4457663259" /><edge from="4457663259" id="4457663259_2226656891" to="2226656891" /><edge from="2226656891" id="2226656891_253768065" to="253768065" /><edge from="253768065" id="253768065_4457663260" to="4457663260" /><edge from="4457663260" id="4457663260_373067769" to="373067769" /><edge from="373067769" id="373067769_373067755" to="373067755" /><edge from="373067755" id="373067755_3047691070" to="3047691070" /><edge from="3047691070" id="3047691070_4457663248" to="4457663248" /><edge from="4457663248" id="4457663248_3047691071" to="3047691071" /><edge from="3047691071" id="3047691071_4003572168" to="4003572168" /><edge from="4003572168" id="4003572168_1096241530" to="1096241530" /><edge from="1096241530" id="1096241530_1096241492" to="1096241492" /><edge from="1096241492" id="1096241492_1096241493" to="1096241493" /><edge from="1096241493" id="1096241493_1096241494" to="1096241494" /><edge from="1096241494" id="1096241494_1096241495" to="1096241495" /><edge from="1096241495" id="1096241495_2484734226" to="2484734226" /><edge from="2484734226" id="2484734226_2484734227" to="2484734227" /><edge from="2484734227" id="2484734227_1072501002" to="1072501002" /><edge from="1072501002" id="1072501002_1072501004" to="1072501004" /><edge from="1072501004" id="1072501004_1072501000" to="1072501000" /><edge from="1072501000" id="1072501000_1072500950" to="1072500950" /><edge from="1072500950" id="1072500950_1072501043" to="1072501043" /><edge from="1072501043" id="1072501043_1072501057" to="1072501057" /><edge from="1072501057" id="1072501057_1072501059" to="1072501059" /><edge from="1072501059" id="1072501059_67755820" to="67755820" /><edge from="67755820" id="67755820_67760981" to="67760981" /><edge from="67760981" id="67760981_67760984" to="67760984" /><edge from="67760984" id="67760984_2450172983" to="2450172983" /><edge from="2450172983" id="2450172983_2484730867" to="2484730867" /><edge from="2484730867" id="2484730867_67816409" to="67816409" /><edge from="67816409" id="67816409_1573773308" to="1573773308" /><edge from="1573773308" id="1573773308_67816410" to="67816410" /><edge from="67816410" id="67816410_250045894" to="250045894" /><edge from="250045894" id="250045894_250045893" to="250045893" /><edge from="250045893" id="250045893_2726414543" to="2726414543" /><edge from="2726414543" id="2726414543_250045892" to="250045892" /><edge from="250045892" id="250045892_250045890" to="250045890" /><edge from="250045890" id="250045890_2484730870" to="2484730870" /><edge from="2484730870" id="2484730870_279108283" to="279108283" /><edge from="279108283" id="279108283_67709252" to="67709252" /><edge from="67709252" id="67709252_2302316250" to="2302316250" /><edge from="2302316250" id="2302316250_1106095132" to="1106095132" /><edge from="1106095132" id="1106095132_1106095130" to="1106095130" /><edge from="1106095130" id="1106095130_2302316251" to="2302316251" /><edge from="2302316251" id="2302316251_5404645698" to="5404645698" /><edge from="5404645698" id="5404645698_5404645696" to="5404645696" /><edge from="5404645696" id="5404645696_1999701130" to="1999701130" /><edge from="1999701130" id="1999701130_2484730871" to="2484730871" /><edge from="2484730871" id="2484730871_2726414540" to="2726414540" /><edge from="2726414540" id="2726414540_2726414542" to="2726414542" /><edge from="2726414542" id="2726414542_2302267392" to="2302267392" /><edge from="2302267392" id="2302267392_2302267394" to="2302267394" /><edge from="2302267394" id="2302267394_2484730866" to="2484730866" /><edge from="2484730866" id="2484730866_1999701129" to="1999701129" /><edge from="1999701129" id="1999701129_1999701128" to="1999701128" /><edge from="1999701128" id="1999701128_3019501896" to="3019501896" /><edge from="3019501896" id="3019501896_1999701127" to="1999701127" /><edge from="1999701127" id="1999701127_2484730868" to="2484730868" /><edge from="2484730868" id="2484730868_5404645671" to="5404645671" /><edge from="5404645671" id="5404645671_26680226" to="26680226" /><edge from="26680226" id="26680226_3235486821" to="3235486821" /><edge from="3235486821" id="3235486821_3235486822" to="3235486822" /><edge from="3235486822" id="3235486822_249924717" to="249924717" /><edge from="249924717" id="249924717_249924716" to="249924716" /><edge from="249924716" id="249924716_2602459356" to="2602459356" /><edge from="2602459356" id="2602459356_3853718231" to="3853718231" /><edge from="3853718231" id="3853718231_35726534" to="35726534" /><edge from="35726534" id="35726534_67629512" to="67629512" /><edge from="67629512" id="67629512_35726548" to="35726548" /><edge from="35726548" id="35726548_35726549" to="35726549" /><edge from="35726549" id="35726549_35726550" to="35726550" /><edge from="35726550" id="35726550_35726551" to="35726551" /><edge from="35726551" id="35726551_35726552" to="35726552" /><edge from="35726552" id="35726552_583184479" to="583184479" /><edge from="583184479" id="583184479_583184648" to="583184648" /><edge from="583184648" id="583184648_583184647" to="583184647" /><edge from="583184647" id="583184647_583184646" to="583184646" /><edge from="583184646" id="583184646_583184645" to="583184645" /><edge from="583184645" id="583184645_583184644" to="583184644" /><edge from="583184644" id="583184644_583184643" to="583184643" /><edge from="583184643" id="583184643_583184642" to="583184642" /><edge from="583184642" id="583184642_583184641" to="583184641" /><edge from="583184641" id="583184641_583184640" to="583184640" /><edge from="583184640" id="583184640_583184639" to="583184639" /><edge from="583184639" id="583184639_583184638" to="583184638" /><edge from="583184638" id="583184638_583184636" to="583184636" /><edge from="583184636" id="583184636_583184634" to="583184634" /><edge