<edges><edge from="3621314698" id="3621314698_3621314696" to="3621314696" /><edge from="3621314696" id="3621314696_3621314695" to="3621314695" /><edge from="3621314695" id="3621314695_3621314700" to="3621314700" /><edge from="3621314700" id="3621314700_3621314701" to="3621314701" /><edge from="3621314701" id="3621314701_3621314706" to="3621314706" /><edge from="3621314706" id="3621314706_3621312486" to="3621312486" /><edge from="3621312486" id="3621312486_3621312489" to="3621312489" /><edge from="3621312489" id="3621312489_3621312492" to="3621312492" /><edge from="3621312492" id="3621312492_3621314694" to="3621314694" /><edge from="3621314694" id="3621314694_3621314697" to="3621314697" /><edge from="3621314697" id="3621314697_3621314703" to="3621314703" /><edge from="3621314703" id="3621314703_3621314705" to="3621314705" /><edge from="3621314705" id="3621314705_3621314707" to="3621314707" /><edge from="3621314707" id="3621314707_3621314710" to="3621314710" /><edge from="3621314710" id="3621314710_3621314713" to="3621314713" /><edge from="3621314713" id="3621314713_3621314720" to="3621314720" /><edge from="3621314720" id="3621314720_3598445446" to="3598445446" /><edge from="3598445446" id="3598445446_3598554223" to="3598554223" /><edge from="3598554223" id="3598554223_3598554224" to="3598554224" /><edge from="3598554224" id="3598554224_5033845409" to="5033845409" /><edge from="5033845409" id="5033845409_5308324220" to="5308324220" /><edge from="5308324220" id="5308324220_5033845406" to="5033845406" /><edge from="5033845406" id="5033845406_5176464656" to="5176464656" /><edge from="5176464656" id="5176464656_5055723939" to="5055723939" /><edge from="5055723939" id="5055723939_4357283845" to="4357283845" /><edge from="4357283845" id="4357283845_4895039585" to="4895039585" /><edge from="4895039585" id="4895039585_4357283850" to="4357283850" /><edge from="4357283850" id="4357283850_4357283851" to="4357283851" /><edge from="4357283851" id="4357283851_4357283852" to="4357283852" /><edge from="4357283852" id="4357283852_4380221995" to="4380221995" /><edge from="4380221995" id="4380221995_4895039586" to="4895039586" /><edge from="4895039586" id="4895039586_4895039589" to="4895039589" /></edges>