<nodes><node id="3621314698" x="48.7526321" y="55.7512339" /><node id="3621314696" x="48.752384" y="55.7512234" /><node id="3621314695" x="48.7523561" y="55.7512222" /><node id="3621314700" x="48.7520809" y="55.7512431" /><node id="3621314701" x="48.752049" y="55.7512455" /><node id="3621314706" x="48.7518041" y="55.7512921" /><node id="3621312486" x="48.7516822" y="55.7510851" /><node id="3621312489" x="48.7513832" y="55.751129" /><node id="3621312492" x="48.7510941" y="55.7511805" /><node id="3621314694" x="48.7509691" y="55.7512028" /><node id="3621314697" x="48.7508088" y="55.7512308" /><node id="3621314703" x="48.750669" y="55.7512552" /><node id="3621314705" x="48.750527" y="55.7512835" /><node id="3621314707" x="48.7503757" y="55.7513135" /><node id="3621314710" x="48.7502419" y="55.7513426" /><node id="3621314713" x="48.7501204" y="55.7513698" /><node id="3621314720" x="48.7500354" y="55.7513836" /><node id="3598445446" x="48.7499309" y="55.7511818" /><node id="3598554223" x="48.7497099" y="55.7512243" /><node id="3598554224" x="48.7494282" y="55.7507747" /><node id="5033845409" x="48.7492339" y="55.7508152" /><node id="5308324220" x="48.7491788" y="55.7507135" /><node id="5033845406" x="48.7494349" y="55.7496307" /><node id="5176464656" x="48.7488899" y="55.7489075" /><node id="5055723939" x="48.7485959" y="55.7485227" /><node id="4357283845" x="48.7473732" y="55.7473146" /><node id="4895039585" x="48.746818" y="55.7471727" /><node id="4357283850" x="48.746354" y="55.7471259" /><node id="4357283851" x="48.7457907" y="55.7471093" /><node id="4357283852" x="48.7454581" y="55.7470791" /><node id="4380221995" x="48.7451443" y="55.7470006" /><node id="4895039586" x="48.7448385" y="55.7468919" /><node id="4895039589" x="48.7444527" y="55.7465635" /></nodes>