<nodes><node id="250480641" x="145.005486" y="-37.8110388" /><node id="767582212" x="144.9714275" y="-37.8075344" /><node id="250480649" x="145.0047212" y="-37.8109632" /><node id="4000710669" x="145.038027" y="-37.807692" /><node id="250480655" x="145.003222" y="-37.8108189" /><node id="3855648786" x="144.871208" y="-37.8101977" /><node id="4283908116" x="144.9767682" y="-37.8081037" /><node id="4283908117" x="144.9768225" y="-37.8081096" /><node id="309975063" x="145.0489347" y="-37.8089593" /><node id="702459929" x="144.9490753" y="-37.8051143" /><node id="250480666" x="145.0015254" y="-37.8106542" /><node id="250480669" x="145.0023363" y="-37.8107328" /><node id="850722885" x="145.0379324" y="-37.8076811" /><node id="309975083" x="145.0504139" y="-37.809138" /><node id="30945324" x="144.9759342" y="-37.8080121" /><node id="304701495" x="145.0327138" y="-37.8070778" /><node id="309971000" x="145.0387999" y="-37.8077789" /><node id="30948020" x="145.0029751" y="-37.810795" /><node id="36022333" x="144.8695669" y="-37.8109106" /><node id="36022334" x="144.8696733" y="-37.8108793" /><node id="36022335" x="144.8703077" y="-37.8106384" /><node id="36022336" x="144.8711888" y="-37.8102073" /><node id="36022337" x="144.8718582" y="-37.8098639" /><node id="36022338" x="144.8725092" y="-37.8094741" /><node id="36022339" x="144.8738354" y="-37.8086855" /><node id="36022340" x="144.8753031" y="-37.8078717" /><node id="36022341" x="144.8784644" y="-37.806191" /><node id="36022342" x="144.8827733" y="-37.8039289" /><node id="36022343" x="144.8880072" y="-37.8011531" /><node id="309975117" x="145.0535326" y="-37.8095157" /><node id="277362770" x="145.0085819" y="-37.8113389" /><node id="4283908179" x="145.0086784" y="-37.8113336" /><node id="1725216852" x="144.9598532" y="-37.8062509" /><node id="702351447" x="144.9377278" y="-37.8053775" /><node id="4283908187" x="145.014663" y="-37.8120407" /><node id="1725216871" x="144.9644611" y="-37.8067646" /><node id="3224362684" x="145.0314332" y="-37.8069297" /><node id="702351473" x="144.9379276" y="-37.8054443" /><node id="702351474" x="144.9383219" y="-37.8055895" /><node id="702351475" x="144.9388946" y="-37.8058215" /><node id="277362804" x="145.0093781" y="-37.8113291" /><node id="277362806" x="145.0097902" y="-37.8113448" /><node id="277362807" x="145.0100449" y="-37.8113679" /><node id="277362808" x="145.0109423" y="-37.8114713" /><node id="702351481" x="144.9408821" y="-37.8056711" /><node id="702351482" x="144.941098" y="-37.8055873" /><node id="702351483" x="144.941322" y="-37.8055005" /><node id="277362814" x="145.0148103" y="-37.812075" /><node id="287629445" x="144.9489936" y="-37.8051406" /><node id="29960342" x="145.0476902" y="-37.8088112" /><node id="3987365913" x="144.9911362" y="-37.8095896" /><node id="67610780" x="144.9109891" y="-37.8009536" /><node id="30220445" x="144.9914506" y="-37.8096216" /><node id="130038296" x="144.9402075" y="-37.8059031" /><node id="2382446760" x="144.9029771" y="-37.8001316" /><node id="4633573546" x="144.9436787" y="-37.8054149" /><node id="4633573547" x="144.9438443" y="-37.8054343" /><node id="304701810" x="145.0354272" y="-37.8073915" /><node id="1928315592" x="145.0716264" y="-37.8080889" /><node id="2978801845" x="145.0121276" y="-37.8115747" /><node id="2978801846" x="145.011681" y="-37.8115438" /><node id="2978801847" x="145.0114478" y="-37.8115305" /><node id="2978801848" x="145.0118941" y="-37.8115582" /><node id="313254077" x="145.0692452" y="-37.8078167" /><node id="774545099" x="144.9583012" y="-37.8060776" /><node id="746428618" x="144.9923455" y="-37.8096605" /><node id="583063758" x="144.9353905" y="-37.8046323" /><node id="702363855" x="144.9416143" y="-37.8054009" /><node id="4273053908" x="144.9369252" y="-37.8051254" /><node id="314470621" x="144.9046005" y="-37.8002962" /><node id="3281070305" x="144.9862028" y="-37.8090821" /><node id="2384091375" x="144.9732063" y="-37.807709" /><node id="702363888" x="144.9414856" y="-37.8054411" /><node id="309975281" x="145.0516733" y="-37.8092899" /><node id="313254109" x="145.0704159" y="-37.8079647" /><node id="1522977019" x="145.0299004" y="-37.8071108" /><node id="202473725" x="144.9334558" y="-37.8040237" /><node id="702363903" x="144.9421508" y="-37.8053299" /><node id="702363904" x="144.9426684" y="-37.8053744" /><node id="130040068" x="144.9358503" y="-37.8047916" /><node id="43251976" x="144.9482313" y="-37.8049802" /><node id="3394781452" x="144.9428588" y="-37.8053949" /><node id="130042127" x="144.907929" y="-37.8006731" /><node id="702462230" x="144.9478494" y="-37.8049188" /><node id="323098904" x="144.8981969" y="-37.799605" /><node id="1055879458" x="144.9032558" y="-37.8001459" /><node id="2612216102" x="144.8604529" y="-37.81021" /><node id="30945575" x="144.9785409" y="-37.8082903" /><node id="1055879468" x="144.9034394" y="-37.8001671" /><node id="3215374640" x="144.8873751" y="-37.801463" /><node id="3215374641" x="144.8876386" y="-37.801343" /><node id="775942450" x="144.9615085" y="-37.806433" /><node id="777697587" x="144.9560816" y="-37.8058297" /><node id="777697592" x="144.956183" y="-37.805841" /><node id="777697599" x="144.9566815" y="-37.8058967" /><node id="1833875777" x="144.9372108" y="-37.8052151" /><node id="3205511505" x="145.0262564" y="-37.8101595" /><node id="3205511506" x="145.0262784" y="-37.8101362" /><node id="372998488" x="144.986353" y="-37.8090958" /><node id="3019501916" x="144.8967881" y="-37.7994369" /><node id="1055879518" x="144.9035653" y="-37.8001814" /><node id="313254240" x="145.0726395" y="-37.8082298" /><node id="309969259" x="145.0333314" y="-37.8071492" /><node id="471259500" x="144.9476554" y="-37.8049954" /><node id="775945874" x="144.9594792" y="-37.806209" /><node id="130038127" x="144.9418732" y="-37.8053511" /><node id="130038128" x="144.9420193" y="-37.8053362" /><node id="130038129" x="144.9422902" y="-37.8053309" /><node id="130038130" x="144.9424203" y="-37.8053436" /><node id="780982646" x="144.9493409" y="-37.8051001" /><node id="313139945" x="145.0659159" y="-37.8076329" /><node id="304701503" x="145.031765" y="-37.8069681" /><node id="30220684" x="144.985669" y="-37.8090334" /><node id="781005199" x="144.9520566" y="-37.8053944" /><node id="583197079" x="144.9092465" y="-37.8008305" /><node id="3326880153" x="144.9289064" y="-37.8029944" /><node id="781005210" x="144.9523663" y="-37.8054307" /><node id="3326880156" x="144.9290092" y="-37.8030053" /><node id="3326880158" x="144.9301291" y="-37.8031448" /><node id="3326880159" x="144.9291186" y="-37.8030157" /><node id="33675682" x="144.9643373" y="-37.8067516" /><node id="2100795462" x="144.868539" y="-37.8110664" /><node id="673083815" x="145.0660874" y="-37.8074349" /><node id="304701852" x="145.0368076" y="-37.8075511" /><node id="702459975" x="144.9489394" y="-37.8050618" /><node id="313440691" x="145.0739212" y="-37.8083796" /><node id="30220702" x="144.9826053" y="-37.8087173" /><node id="214131786" x="145.0246249" y="-37.8119547" /><node id="4169720259" x="145.0304745" y="-37.8069193" /><node id="1279001028" x="144.8958036" y="-37.7993199" /><node id="767584716" x="144.9708683" y="-37.8074687" /><node id="309972045" x="145.0417221" y="-37.8081056" /><node id="313140298" x="145.0670976" y="-37.8075525" /><node id="4413196757" x="144.9014334" y="-37.7999698" /><node id="4413196759" x="144.9020356" y="-37.8000376" /><node id="320846296" x="144.8716374" y="-37.8099824" /><node id="622950875" x="144.9009794" y="-37.799919" /><node id="777775583" x="144.9506585" y="-37.805233" /><node id="4169720288" x="145.0306213" y="-37.80688" /><node id="3933094370" x="144.9656798" y="-37.8069015" /><node id="1277945597" x="144.8932492" y="-37.7990083" /><node id="2383215095" x="144.9580733" y="-37.8060521" /><node id="777746939" x="144.9557662" y="-37.8057941" /><node id="21643772" x="145.0381593" y="-37.8077073" /><node id="4061053437" x="144.9925222" y="-37.8096732" /><node id="4061053440" x="144.9926059" y="-37.8096896" /><node id="1833142699" x="144.8830631" y="-37.8037719" /><node id="320846340" x="144.8802866" y="-37.8052338" /><node id="4061053446" x="144.9930897" y="-37.809741" /><node id="4061053447" x="144.9931259" y="-37.8097448" /><node id="4061053449" x="144.9931516" y="-37.8097476" /><node id="4061053450" x="144.9931712" y="-37.8097506" /><node id="4061053453" x="144.9932051" y="-37.8097638" /><node id="4061053456" x="144.9932567" y="-37.8097839" /><node id="306383379" x="144.9417417" y="-37.8053733" /><node id="130038292" x="144.9394243" y="-37.805954" /><node id="130038293" x="144.9396389" y="-37.8059677" /><node id="130038294" x="144.939832" y="-37.8059614" /><node id="130038295" x="144.940001" y="-37.8059423" /><node id="320852504" x="144.8663799" y="-37.8108693" /><node id="702450201" x="144.9440242" y="-37.8054558" /><node id="2080740194" x="145.0367208" y="-37.807541" /><node id="4061053475" x="144.9953046" y="-37.8100036" /><node id="832391719" x="144.8867984" y="-37.8017873" /><node id="4061053484" x="144.9958751" y="-37.8100628" /><node id="313139758" x="145.072345" y="-37.8081966" /><node id="130038330" x="144.9403926" y="-37.8058491" /><node id="130038331" x="144.9404918" y="-37.805813" /><node id="30947901" x="145.0006616" y="-37.8105704" /><node id="249996725" x="144.904963" y="-37.8003365" /><node id="2096319043" x="144.9754684" y="-37.8079603" /><node id="313139789" x="145.0710986" y="-37.8080469" /><node id="223007318" x="144.9894544" y="-37.809416" /><node id="777710168" x="144.9539544" y="-37.8056085" /><node id="313139805" x="145.0698174" y="-37.8078916" /><node id="1404234340" x="144.9970966" y="-37.8101921" /><node id="723980902" x="145.0096914" y="-37.8113401" /><node id="723980903" x="145.0103881" y="-37.8114102" /><node id="2268148328" x="144.8821645" y="-37.8042474" /><node id="2268148332" x="144.8790453" y="-37.8058858" /><node id="777710193" x="144.9552312" y="-37.805742" /><node id="702378611" x="144.9431995" y="-37.8053574" /><node id="313139836" x="145.0667211" y="-37.8075081" /><node id="767584894" x="144.9731247" y="-37.8077001" /><node id="76459457" x="144.9385164" y="-37.8056732" /><node id="320852621" x="144.8608986" y="-37.8102603" /><node id="501027471" x="144.9711338" y="-37.8075036" /><node id="30947985" x="145.005156" y="-37.8110063" /><node id="501027474" x="144.9709085" y="-37.8074761" /><node id="2241696406" x="145.0141928" y="-37.8119314" /><node id="1277945625" x="144.8928258" y="-37.7988961" /><node id="224750232" x="144.9779815" y="-37.8082316" /><node id="309969348" x="145.0341482" y="-37.8072436" /><node id="1928315552" x="145.0714894" y="-37.8080701" /><node id="2815396513" x="145.0530343" y="-37.809456" /><node id="1928315555" x="145.0715632" y="-37.8080411" /><node id="3394892452" x="145.0095642" y="-37.8113332" /><node id="1928315558" x="145.0715324" y="-37.8080425" /><node id="777771693" x="144.9599949" y="-37.8062667" /><node id="3933086388" x="144.9642169" y="-37.8067375" /><node id="1928315573" x="145.0715068" y="-37.8080526" /><node id="3933086393" x="144.9626971" y="-37.8065605" /><node id="1928315579" x="145.0716181" y="-37.8080716" /><node id="1928315581" x="145.0716271" y="-37.8081084" /><node id="248746687" x="144.993852" y="-37.8098489" /><node id="372998848" x="144.9876645" y="-37.8092246" /><node id="1928315586" x="145.0714809" y="-37.808091" /><node id="1928315589" x="145.0716037" y="-37.8080577" /><node id="2245577415" x="145.0492537" y="-37.8089972" /><node id="2245577416" x="145.0459609" y="-37.8086053" /><node id="2245577418" x="145.0529793" y="-37.8094494" /><node id="313139919" x="145.0611785" y="-37.8078117" /><node id="1277945635" x="144.8919857" y="-37.7990152" /><node id="3555805912" x="144.9370566" y="-37.8051664" /><node id="269335260" x="144.9786866" y="-37.8083056" /><node id="3071691488" x="145.034794" y="-37.8073183" /><node id="277362811" x="145.0136938" y="-37.8118142" /><node id="309972112" x="145.0405343" y="-37.8079728" /><node id="313139943" x="145.0653006" y="-37.8082966" /><node id="2241798888" x="145.0219799" y="-37.8129457" /><node id="1533481705" x="145.019217" y="-37.8126101" /><node id="313139946" x="145.0659671" y="-37.8074228" /><node id="129952492" x="144.9983089" y="-37.8103197" /><node id="370708264" x="144.864067" y="-37.8105869" /><node id="723976949" x="145.0088923" y="-37.8113217" /><node id="30221048" x="145.0159673" y="-37.8122155" /><node id="1928298965" x="145.0742633" y="-37.8066668" /><node id="628761345" x="144.9790533" y="-37.8083441" /><node id="767587081" x="144.9733423" y="-37.8077239" /><node id="30948116" x="145.0073618" y="-37.811221" /><node id="373003030" x="144.9865469" y="-37.8091161" /><node id="1985551133" x="144.965933" y="-37.8069298" /><node id="3218293536" x="144.948089" y="-37.804942" /><node id="224750388" x="144.980231" y="-37.8084683" /><node id="332544824" x="144.943106" y="-37.805421" /><node id="777775931" x="144.9508189" y="-37.8052483" /><node id="4273062718" x="144.9147668" y="-37.8014673" /><node id="2372885312" x="144.9889192" y="-37.8093612" /><node id="2372885314" x="144.9892" y="-37.8093903" /><node id="313441110" x="145.0741037" y="-37.8074606" /><node id="2080740191" x="145.0424756" y="-37.8081899" /><node id="2479076496" x="144.9106052" y="-37.8009278" /><node id="224750434" x="144.9814096" y="-37.8085917" /><node id="1277946726" x="144.8921423" y="-37.7989354" /><node id="1277946732" x="144.8914808" y="-37.7992781" /><node id="1277946734" x="144.8923211" y="-37.7988442" /><node id="767665017" x="144.9734019" y="-37.8077306" /><node id="3790949317" x="144.9368101" y="-37.8050894" /><node id="3359255433" x="144.882666" y="-37.803984" /><node id="3359255435" x="144.8825656" y="-37.8040367" /><node id="30948162" x="145.0084965" y="-37.8113359" /><node id="3359255438" x="144.8694939" y="-37.810933" /><node id="1522834323" x="145.0289966" y="-37.8074283" /><node id="129953605" x="144.9938212" y="-37.8098444" /><node id="1522834342" x="145.0287775" y="-37.8075457" /><node id="30220444" x="144.968907" y="-37.8072639" /><node id="304704429" x="145.0398818" y="-37.8078988" /><node id="319157174" x="144.9666602" y="-37.807011" /><node id="1522834359" x="145.0290994" y="-37.8073751" /><node id="304704440" x="145.0437915" y="-37.8083467" /><node id="3790949307" x="144.9364631" y="-37.8049802" /><node id="282416060" x="144.9011853" y="-37.7999418" /><node id="1522834368" x="145.0286742" y="-37.807637" /><node id="304704449" x="145.0469046" y="-37.8087176" /><node id="774546370" x="144.9590498" y="-37.8061612" /><node id="774546372" x="144.9593752" y="-37.8061975" /><node id="774546373" x="144.9595345" y="-37.8062153" /><node id="774546374" x="144.959634" y="-37.8062264" /><node id="3790949319" x="144.9373053" y="-37.8052448" /><node id="777759693" x="144.9572319" y="-37.8059582" /><node id="1522834383" x="145.0288855" y="-37.807486" /><node id="130042833" x="144.9115456" y="-37.8009834" /><node id="130042834" x="144.9118769" y="-37.8010164" /><node id="202519507" x="144.9209331" y="-37.8021316" /><node id="130042836" x="144.9123517" y="-37.8010762" /><node id="130042837" x="144.9125813" y="-37.8011226" /><node id="130042838" x="144.9128069" y="-37.8011751" /><node id="130042839" x="144.9131604" y="-37.8012452" /><node id="130042840" x="144.9134996" y="-37.8013032" /><node id="130042841" x="144.9137657" y="-37.8013371" /><node id="130042842" x="144.914315" y="-37.8014117" /><node id="130042844" x="144.9151819" y="-37.8015067" /><node id="130042845" x="144.9156797" y="-37.8015609" /><node id="4169720798" x="145.0235955" y="-37.8130443" /><node id="130042847" x="144.9166067" y="-37.8016626" /><node id="130042848" x="144.917208" y="-37.8017179" /><node id="130042849" x="144.9177826" y="-37.8017847" /><node id="130042850" x="144.9184263" y="-37.8018525" /><node id="130042851" x="144.9189842" y="-37.8019203" /><node id="130042852" x="144.9196566" y="-37.8019929" /><node id="130042853" x="144.9202373" y="-37.8020628" /><node id="130042854" x="144.9206922" y="-37.8021102" /><node id="130042855" x="144.9213188" y="-37.8021713" /><node id="130042856" x="144.9221342" y="-37.8022662" /><node id="130042857" x="144.9229668" y="-37.8023476" /><node id="130042858" x="144.9237478" y="-37.8024358" /><node id="130042859" x="144.9242285" y="-37.80249" /><node id="130042860" x="144.9249752" y="-37.8025578" /><node id="130042861" x="144.9255846" y="-37.8026256" /><node id="130042862" x="144.9262455" y="-37.802707" /><node id="130042863" x="144.9269407" y="-37.8027816" /><node id="130042864" x="144.9274455" y="-37.802845" /><node id="4633573544" x="144.9433806" y="-37.8053807" /><node id="130042866" x="144.9284167" y="-37.8029495" /><node id="130042868" x="144.9296926" y="-37.8030876" /><node id="130042869" x="144.9304484" y="-37.8031938" /><node id="130042871" x="144.9307602" y="-37.8032496" /><node id="130042872" x="144.9311378" y="-37.8033309" /><node id="130042873" x="144.9315155" y="-37.8034327" /><node id="130042874" x="144.9319189" y="-37.8035412" /><node id="130042875" x="144.9326656" y="-37.8037717" /><node id="130042876" x="144.9329489" y="-37.8038531" /><node id="130042877" x="144.9333179" y="-37.803982" /><node id="130042878" x="144.9340218" y="-37.8042058" /><node id="313139944" x="145.0654568" y="-37.8080066" /><node id="3281073163" x="144.9835792" y="-37.8088196" /><node id="214131724" x="145.0255356" y="-37.8109907" /><node id="1522566317" x="145.0290832" y="-37.8073809" /><node id="1522834448" x="145.0287491" y="-37.8075671" /><node id="1522834451" x="145.0288047" y="-37.8075288" /><node id="30942236" x="144.9040879" y="-37.8002394" /><node id="30942237" x="144.9048334" y="-37.8003221" /><node id="30942238" x="144.9094887" y="-37.8008577" /><node id="387152931" x="144.9450189" y="-37.8051665" /><node id="1522566181" x="145.0286527" y="-37.8076585" /><node id="2425453607" x="145.0622465" y="-37.8079404" /><node id="30942248" x="144.9387068" y="-37.8057473" /><node id="30942249" x="144.9390756" y="-37.8058798" /><node id="30942252" x="144.9392258" y="-37.805919" /><node id="30942253" x="144.9414292" y="-37.8054613" /><node id="1522834478" x="145.0287102" y="-37.807601" /><node id="2425453618" x="145.0625473" y="-37.8079767" /><node id="130042935" x="144.9149601" y="-37.8014852" /><node id="304700483" x="145.0274464" y="-37.8089" /><node id="3419339847" x="144.9784321" y="-37.8082789" /><node id="2368035914" x="144.9788115" y="-37.8083158" /><node id="5536422989" x="144.9071618" y="-37.8005859" /><node id="1487227988" x="145.0306001" y="-37.8068853" /><node id="214099039" x="145.0202597" y="-37.8127368" /><node id="1487228003" x="145.0308116" y="-37.8068579" /><node id="224738413" x="144.9885661" y="-37.8093201" /><node id="1522566268" x="145.0293823" y="-37.8072739" /><node id="1487228031" x="145.0306443" y="-37.8068742" /><node id="1487228036" x="145.0307567" y="-37.8068585" /><node id="622959751" x="144.9063954" y="-37.8004987" /><node id="2479076495" x="144.9099303" y="-37.8008875" /><node id="622959760" x="144.908613" y="-37.8007567" /><node id="622950936" x="144.9021717" y="-37.8000529" /><node id="2479076502" x="144.9117125" y="-37.8009947" /><node id="387153047" x="144.947587" y="-37.8054203" /><node id="130043040" x="144.9292043" y="-37.8030248" /><node id="777778344" x="144.9521413" y="-37.805403" /><node id="304704681" x="145.0495425" y="-37.8090323" /><node id="304700589" x="145.0252566" y="-37.811286" /><node id="777778351" x="144.9522901" y="-37.805422" /><node id="311901363" x="145.0579038" y="-37.8075718" /><node id="1487228084" x="145.0309799" y="-37.8068774" /><node id="4794459318" x="144.9335986" y="-37.8040696" /><node id="2241788901" x="145.0232266" y="-37.8130971" /><node id="311901379" x="145.0611455" y="-37.8079684" /><node id="3933095112" x="144.9703096" y="-37.8074104" /><node id="3933095114" x="144.9713252" y="-37.8075237" /><node id="3933095115" x="144.96866" y="-37.8072325" /><node id="777778380" x="144.9495328" y="-37.8051169" /><node id="777778385" x="144.9516276" y="-37.8053542" /><node id="777778387" x="144.9518352" y="-37.8053739" /><node id="777778391" x="144.9530814" y="-37.8055121" /><node id="250291418" x="144.8677413" y="-37.8110214" /><node id="250479836" x="145.0064662" y="-37.8111341" /><node id="777778398" x="144.9536218" y="-37.8055661" /><node id="777778401" x="144.953764" y="-37.805582" /><node id="130043112" x="144.9322365" y="-37.8036361" /><node id="3419344105" x="144.9767184" y="-37.8080982" /><node id="780979435" x="144.9493181" y="-37.8051" /><node id="1112411372" x="144.9294614" y="-37.8030582" /><node id="1487228141" x="145.0311994" y="-37.8069027" /><node id="1487228148" x="145.0307001" y="-37.8068649" /><node id="1277943031" x="144.8947764" y="-37.7991979" /><node id="2471245050" x="144.8980827" y="-37.7995919" /><node id="705744124" x="145.0041063" y="-37.8109049" /><node id="1277943037" x="144.9010297" y="-37.7999245" /><node id="1277943040" x="144.9013126" y="-37.7999562" /><node id="2245788930" x="145.057388" y="-37.8099602" /><node id="767585539" x="144.9476219" y="-37.8051777" /><node id="4110787845" x="144.9960381" y="-37.8100798" /><node id="130039046" x="144.9381274" y="-37.8055153" /><node id="1277943048" x="144.8934586" y="-37.7990413" /><node id="1277943051" x="144.8945972" y="-37.7991766" /><node id="1277943062" x="144.8946889" y="-37.7991875" /><node id="30942487" x="144.9350517" y="-37.8045313" /><node id="130039064" x="144.9375987" y="-37.805337" /><node id="202661082" x="144.9163154" y="-37.801623" /><node id="4794459427" x="144.9346911" y="-37.8044173" /><node id="1900213541" x="144.9613443" y="-37.8064174" /><node id="1889062696" x="144.9913663" y="-37.8096129" /><node id="250291504" x="144.8689082" y="-37.8111131" /><node id="777743666" x="144.9559774" y="-37.805818" /><node id="30385374" x="145.0235128" y="-37.8131318" /><node id="355818807" x="144.9977363" y="-37.8102664" /><node id="2237633848" x="144.985233" y="-37.8089867" /><node id="2237633849" x="144.9848101" y="-37.8089457" /><node id="34157905" x="144.9687506" y="-37.8072432" /><node id="355818836" x="144.9965834" y="-37.8101377" /><node id="777778529" x="144.94941" y="-37.8051003" /><node id="777778530" x="144.9493905" y="-37.8051003" /><node id="1713460586" x="144.983889" y="-37.8088517" /><node id="832357753" x="144.8893052" y="-37.8004657" /><node id="214117760" x="145.0160781" y="-37.812229" /><node id="287630727" x="144.9451561" y="-37.8051853" /><node id="702465421" x="144.9491356" y="-37.8051041" /><node id="287630734" x="144.9441007" y="-37.8050607" /><node id="775933327" x="144.9585153" y="-37.8061015" /><node id="702465424" x="144.9492222" y="-37.8051025" /><node id="287630739" x="144.9435795" y="-37.8054046" /><node id="4005305751" x="144.9624497" y="-37.806534" /><node id="129953571" x="144.9971252" y="-37.8101954" /><node id="355818907" x="144.995232" y="-37.8099961" /><node id="4211625372" x="145.0211554" y="-37.8128448" /><node id="702459973" x="144.9489207" y="-37.8050554" /><node id="2384091376" x="144.9732421" y="-37.8077129" /><node id="1895925155" x="144.9592654" y="-37.8061852" /><node id="309970344" x="145.0377589" y="-37.807661" /><node id="2268143517" x="144.8764433" y="-37.8072409" /><node id="671323571" x="144.8907329" y="-37.7996883" /><node id="1277984670" x="144.8983346" y="-37.7996207" /><node id="30404320" x="144.9960042" y="-37.8100762" /><node id="775933376" x="144.9584327" y="-37.8060922" /><node id="775933377" x="144.9584781" y="-37.8060973" /><node id="313441737" x="145.0736043" y="-37.8083436" /><node id="775941588" x="144.9594321" y="-37.8062038" /><node id="291210710" x="144.9651055" y="-37.8068371" /><node id="30287319" x="144.9658495" y="-37.8069204" /><node id="30287324" x="144.9672879" y="-37.8070811" /><node id="30287325" x="144.9674874" y="-37.8071033" /><node id="2938998243" x="145.0443307" y="-37.808411" /><node id="29936553" x="145.0305167" y="-37.8069043" /><node id="777696327" x="144.9570905" y="-37.8059424" /><node id="1985549822" x="144.9657827" y="-37.806913" /><node id="253549824" x="144.8746295" y="-37.8082442" /><node id="317535746" x="144.9633614" y="-37.8066375" /><node id="3790964227" x="144.9170256" y="-37.8017011" /><node id="319628837" x="145.0578519" y="-37.8077413" /><node id="1522839079" x="145.0297537" y="-37.8071584" /><node id="775941673" x="144.9595556" y="-37.8062176" /><node id="253752874" x="144.8854349" y="-37.8025007" /><node id="3345188400" x="144.9695656" y="-37.8073327" /><node id="233274930" x="144.975727" y="-37.8079891" /><node id="3937113664" x="144.9737965" y="-37.807774" /><node id="30940769" x="144.9033644" y="-37.8001586" /><node id="304704443" x="145.0449427" y="-37.8084839" /><node id="30287465" x="144.9768607" y="-37.8081138" /><node id="313139816" x="145.0685612" y="-37.8077301" /><node id="311901462" x="145.0601499" y="-37.8078466" /><node id="4802879112" x="145.0361466" y="-37.8074746" /><node id="319157897" x="144.9680556" y="-37.807161" /><node id="3855648395" x="144.8721326" y="-37.8097017" /><node id="224763532" x="144.9945944" y="-37.8099266" /><node id="1055841933" x="144.9029079" y="-37.8001373" /><node id="370708114" x="144.8652673" y="-37.8107309" /><node id="777703067" x="144.9558722" y="-37.8058058" /><node id="30947983" x="145.0041604" y="-37.8109101" /><node id="777703071" x="144.9560126" y="-37.8058219" /><node id="309978787" x="145.0300996" y="-37.8070525" /><node id="214118052" x="145.0218245" y="-37.8129254" /><node id="75105959" x="144.8972583" y="-37.7994945" /><node id="30287528" x="144.9904915" y="-37.8095238" /><node id="304705227" x="145.0560302" y="-37.8098152" /><node id="767661756" x="144.973072" y="-37.8076995" /><node id="304705215" x="145.052403" y="-37.8093794" /><node id="3937111753" x="144.9783111" y="-37.8082662" /><node id="3937111755" x="144.9713744" y="-37.8075292" /><node id="253546192" x="144.8680489" y="-37.8110169" /><node id="702451422" x="144.9477297" y="-37.8049066" /><node id="702451424" x="144.9478743" y="-37.8049231" /><node id="774545122" x="144.9579914" y="-37.806043" /><node id="130042835" x="144.9121156" y="-37.8010463" /><node id="253546237" x="144.8698083" y="-37.8108352" /><node id="304705278" x="145.0573844" y="-37.8099776" /><node id="1277945601" x="144.8931743" y="-37.7989854" /><node id="1833869065" x="144.8607889" y="-37.8102479" /><node id="1277945612" x="144.8920235" y="-37.798996" /><node id="309972751" x="145.0462345" y="-37.8086364" /><node id="1277945616" x="144.8930933" y="-37.7989546" /><node id="774547223" x="144.9612269" y="-37.8064043" /><node id="1277945624" x="144.8932946" y="-37.7990222" /><node id="702451481" x="144.9479336" y="-37.804942" /><node id="1277945626" x="144.8929753" y="-37.7989239" /><node id="702451486" x="144.9480033" y="-37.8049728" /><node id="1277984546" x="144.8968798" y="-37.7994478" /><node id="1492410147" x="144.9629864" y="-37.8065909" /><node id="2358071077" x="144.979799" y="-37.8084225" /><node id="1277984552" x="144.8996503" y="-37.7997712" /><node id="4169720796" x="145.0220354" y="-37.8129524" /><node id="1546958634" x="145.0133359" y="-37.8117339" /><node id="1546958636" x="145.0135251" y="-37.8117731" /><node id="3498527026" x="145.0206895" y="-37.8127886" /><node id="4169720797" x="145.0220742" y="-37.8129571" /><node id="1492410163" x="144.9629048" y="-37.8065824" /><node id="777787198" x="144.9535359" y="-37.8055561" /><node id="4169720800" x="145.0233477" y="-37.8131118" /><node id="1277945666" x="144.892868" y="-37.7989017" /><node id="1055841931" x="144.903225" y="-37.8001422" /><node id="241807173" x="144.983731" y="-37.8088356" /><node id="777787206" x="144.9538511" y="-37.8055942" /><node id="4169720801" x="145.02349" y="-37.813129" /><node id="1277945674" x="144.8926565" y="-37.7988772" /><node id="3855646545" x="144.8690613" y="-37.811066" /><node id="202520404" x="144.9281234" y="-37.8029182" /><node id="1492410198" x="144.9628691" y="-37.8065787" /><node id="2189358937" x="144.9917084" y="-37.8096163" /><node id="4936948367" x="144.9838325" y="-37.8088459" /><node id="2237521759" x="145.0007616" y="-37.8105799" /><node id="1277984610" x="144.8985156" y="-37.7996414" /><node id="1492410214" x="144.9628111" y="-37.8065727" /><node id="2241696401" x="145.0130659" y="-37.8116874" /><node id="224765801" x="144.9990862" y="-37.8104033" /><node id="1277984621" x="144.8970878" y="-37.7994735" /><node id="2241788904" x="145.023678" y="-37.8129569" /><node id="370708343" x="144.8628752" y="-37.8104641" /><node id="4000075641" x="144.9728034" y="-37.8076725" /><node id="1277984635" x="144.8974111" y="-37.7995134" /><node id="1928284033" x="145.065811" y="-37.8077479" /><node id="2081997803" x="144.9907512" y="-37.8095507" /><node id="477079436" x="144.9744618" y="-37.8078471" /><node id="477079437" x="144.9745664" y="-37.8078577" /><node id="1277984655" x="144.9010974" y="-37.7999321" /><node id="1928284050" x="145.0653627" y="-37.8081446" /><node id="2815396505" x="145.0521351" y="-37.8093469" /><node id="370708381" x="144.8616165" y="-37.8103256" /><node id="332543902" x="144.942993" y="-37.8054093" /><node id="130042865" x="144.9278999" y="-37.8028942" /><node id="1277984684" x="144.8995534" y="-37.7997611" /><node id="1277984706" x="144.8984287" y="-37.7996315" /><node id="1928315553" x="145.0715869" y="-37.8080472" /><node id="1277984720" x="144.897603" y="-37.7995371" /><node id="370708433" x="144.8587636" y="-37.8100193" /><node id="2013560660" x="145.0070963" y="-37.8111953" /><node id="250480609" x="145.0063192" y="-37.8111224" /><node id="2991935464" x="144.9591198" y="-37.806169" /><node id="3394779114" x="144.9476389" y="-37.8050851" /><node id="248969195" x="144.9912713" y="-37.8096032" /><node id="777721838" x="144.9550903" y="-37.8057283" /><node id="2189377523" x="144.9766508" y="-37.8080908" /><node id="702459892" x="144.9489488" y="-37.8050724" /><node id="4283908095" x="144.98983