<edges><edge from="1928298965" id="1928298965_313441110" to="313441110" /><edge from="313441110" id="313441110_313440691" to="313440691" /><edge from="313440691" id="313440691_313441737" to="313441737" /><edge from="313441737" id="313441737_313254240" to="313254240" /><edge from="313254240" id="313254240_313139758" to="313139758" /><edge from="313139758" id="313139758_1928315581" to="1928315581" /><edge from="1928315581" id="1928315581_1928315592" to="1928315592" /><edge from="1928315592" id="1928315592_1928315579" to="1928315579" /><edge from="1928315579" id="1928315579_1928315589" to="1928315589" /><edge from="1928315589" id="1928315589_1928315553" to="1928315553" /><edge from="1928315553" id="1928315553_1928315555" to="1928315555" /><edge from="1928315555" id="1928315555_1928315558" to="1928315558" /><edge from="1928315558" id="1928315558_1928315573" to="1928315573" /><edge from="1928315573" id="1928315573_1928315552" to="1928315552" /><edge from="1928315552" id="1928315552_1928315586" to="1928315586" /><edge from="1928315586" id="1928315586_313139789" to="313139789" /><edge from="313139789" id="313139789_313254109" to="313254109" /><edge from="313254109" id="313254109_313139805" to="313139805" /><edge from="313139805" id="313139805_313254077" to="313254077" /><edge from="313254077" id="313254077_313139816" to="313139816" /><edge from="313139816" id="313139816_313441837" to="313441837" /><edge from="313441837" id="313441837_313139868" to="313139868" /><edge from="313139868" id="313139868_313139905" to="313139905" /><edge from="313139905" id="313139905_313139906" to="313139906" /><edge from="313139906" id="313139906_313139853" to="313139853" /><edge from="313139853" id="313139853_313139907" to="313139907" /><edge from="313139907" id="313139907_313139865" to="313139865" /><edge from="313139865" id="313139865_313441842" to="313441842" /><edge from="313441842" id="313441842_313139995" to="313139995" /><edge from="313139995" id="313139995_4817054296" to="4817054296" /><edge from="4817054296" id="4817054296_2245992570" to="2245992570" /><edge from="2245992570" id="2245992570_313139953" to="313139953" /><edge from="313139953" id="313139953_2381887355" to="2381887355" /><edge from="2381887355" id="2381887355_462844528" to="462844528" /><edge from="462844528" id="462844528_304705564" to="304705564" /><edge from="304705564" id="304705564_462850492" to="462850492" /><edge from="462850492" id="462850492_304705458" to="304705458" /><edge from="304705458" id="304705458_462849962" to="462849962" /><edge from="462849962" id="462849962_4326585010" to="4326585010" /><edge from="4326585010" id="4326585010_4326585009" to="4326585009" /><edge from="4326585009" id="4326585009_29936554" to="29936554" /><edge from="29936554" id="29936554_4326585008" to="4326585008" /><edge from="4326585008" id="4326585008_4142788490" to="4142788490" /><edge from="4142788490" id="4142788490_311901127" to="311901127" /><edge from="311901127" id="311901127_29960343" to="29960343" /><edge from="29960343" id="29960343_2245577417" to="2245577417" /><edge from="2245577417" id="2245577417_304705278" to="304705278" /><edge from="304705278" id="304705278_304705227" to="304705227" /><edge from="304705227" id="304705227_309975117" to="309975117" /><edge from="309975117" id="309975117_2815396513" to="2815396513" /><edge from="2815396513" id="2815396513_2245577418" to="2245577418" /><edge from="2245577418" id="2245577418_304705215" to="304705215" /><edge from="304705215" id="304705215_2815396505" to="2815396505" /><edge from="2815396505" id="2815396505_309975281" to="309975281" /><edge from="309975281" id="309975281_309975083" to="309975083" /><edge from="309975083" id="309975083_304704681" to="304704681" /><edge from="304704681" id="304704681_2245577415" to="2245577415" /><edge from="2245577415" id="2245577415_309975063" to="309975063" /><edge from="309975063" id="309975063_29960342" to="29960342" /><edge from="29960342" id="29960342_304704449" to="304704449" /><edge from="304704449" id="304704449_309972751" to="309972751" /><edge from="309972751" id="309972751_2245577416" to="2245577416" /><edge from="2245577416" id="2245577416_304704443" to="304704443" /><edge from="304704443" id="304704443_2938998243" to="2938998243" /><edge from="2938998243" id="2938998243_304704440" to="304704440" /><edge from="304704440" id="304704440_2080740191" to="2080740191" /><edge from="2080740191" id="2080740191_309972045" to="309972045" /><edge from="309972045" id="309972045_309972112" to="309972112" /><edge from="309972112" id="309972112_304704429" to="304704429" /><edge from="304704429" id="304704429_309971000" to="309971000" /><edge from="309971000" id="309971000_21643772" to="21643772" /><edge from="21643772" id="21643772_4000710669" to="4000710669" /><edge from="4000710669" id="4000710669_850722885" to="850722885" /><edge from="850722885" id="850722885_309970344" to="309970344" /><edge from="309970344" id="309970344_304701852" to="304701852" /><edge from="304701852" id="304701852_2080740194" to="2080740194" /><edge from="2080740194" id="2080740194_4802879112" to="4802879112" /><edge from="4802879112" id="4802879112_304701810" to="304701810" /><edge from="304701810" id="304701810_3071691488" to="3071691488" /><edge from="3071691488" id="3071691488_309969348" to="309969348" /><edge from="309969348" id="309969348_309969259" to="309969259" /><edge from="309969259" id="309969259_304701495" to="304701495" /><edge from="304701495" id="304701495_304701503" to="304701503" /><edge from="304701503" id="304701503_3224362684" to="3224362684" /><edge from="3224362684" id="3224362684_1487228141" to="1487228141" /><edge from="1487228141" id="1487228141_1487228084" to="1487228084" /><edge from="1487228084" id="1487228084_1487228003" to="1487228003" /><edge from="1487228003" id="1487228003_1487228036" to="1487228036" /><edge from="1487228036" id="1487228036_1487228148" to="1487228148" /><edge from="1487228148" id="1487228148_1487228031" to="1487228031" /><edge from="1487228031" id="1487228031_4169720288" to="4169720288" /><edge from="4169720288" id="4169720288_1487227988" to="1487227988" /><edge from="1487227988" id="1487227988_29936553" to="29936553" /><edge from="29936553" id="29936553_4169720259" to="4169720259" /><edge from="4169720259" id="4169720259_309978787" to="309978787" /><edge from="309978787" id="309978787_1522977019" to="1522977019" /><edge from="1522977019" id="1522977019_1522839079" to="1522839079" /><edge from="1522839079" id="1522839079_1522566268" to="1522566268" /><edge from="1522566268" id="1522566268_1522834359" to="1522834359" /><edge from="1522834359" id="1522834359_1522566317" to="1522566317" /><edge from="1522566317" id="1522566317_1522834449" to="1522834449" /><edge from="1522834449" id="1522834449_1522834345" to="1522834345" /><edge from="1522834345" id="1522834345_1522834377" to="1522834377" /><edge from="1522834377" id="1522834377_1522834355" to="1522834355" /><edge from="1522834355" id="1522834355_31477188" to="31477188" /><edge from="31477188" id="31477188_31477187" to="31477187" /><edge from="31477187" id="31477187_31477186" to="31477186" /><edge from="31477186" id="31477186_2940375840" to="2940375840" /><edge from="2940375840" id="2940375840_370477432" to="370477432" /><edge from="370477432" id="370477432_214122372" to="214122372" /><edge from="214122372" id="214122372_370477489" to="370477489" /><edge from="370477489" id="370477489_31477185" to="31477185" /><edge from="31477185" id="31477185_31477184" to="31477184" /><edge from="31477184" id="31477184_2940375839" to="2940375839" /><edge from="2940375839" id="2940375839_370477495" to="370477495" /><edge from="370477495" id="370477495_214122180" to="214122180" /><edge from="214122180" id="214122180_214092481" to="214092481" /><edge from="214092481" id="214092481_541122878" to="541122878" /><edge from="541122878" id="541122878_541122879" to="541122879" /><edge from="541122879" id="541122879_541122881" to="541122881" /><edge from="541122881" id="541122881_541122882" to="541122882" /><edge from="541122882" id="541122882_541122883" to="541122883" /><edge from="541122883" id="541122883_541122884" to="541122884" /><edge from="541122884" id="541122884_541122885" to="541122885" /><edge from="541122885" id="541122885_541122845" to="541122845" /><edge from="541122845" id="541122845_541122905" to="541122905" /><edge from="541122905" id="541122905_906234098" to="906234098" /><edge from="906234098" id="906234098_906234090" to="906234090" /><edge from="906234090" id="906234090_906234099" to="906234099" /><edge from="906234099" id="906234099_906234081" to="906234081" /><edge from="906234081" id="906234081_906234088" to="906234088" /><edge from="906234088" id="906234088_906234083" to="906234083" /><edge from="906234083" id="906234083_906234091" to="906234091" /><edge from="906234091" id="906234091_906234096" to="906234096" /><edge from="906234096" id="906234096_906234093" to="906234093" /><edge from="906234093" id="906234093_906234084" to="906234084" /><edge from="906234084" id="906234084_906234092" to="906234092" /><edge from="906234092" id="906234092_906234082" to="906234082" /><edge from="906234082" id="906234082_906234094" to="906234094" /><edge from="906234094" id="906234094_906234085" to="906234085" /><edge from="906234085" id="906234085_2384157684" to="2384157684" /><edge from="2384157684" id="2384157684_906234086" to="906234086" /><edge from="906234086" id="906234086_906234097" to="906234097" /><edge from="906234097" id="906234097_906234089" to="906234089" /><edge from="906234089" id="906234089_906234087" to="906234087" /><edge from="906234087" id="906234087_1192149947" to="1192149947" /><edge from="1192149947" id="1192149947_906234095" to="906234095" /><edge from="906234095" id="906234095_3067843936" to="3067843936" /><edge from="3067843936" id="3067843936_827113739" to="827113739" /><edge from="827113739" id="827113739_128874949" to="128874949" /><edge from="128874949" id="128874949_4698523258" to="4698523258" /><edge from="4698523258" id="4698523258_128874985" to="128874985" /><edge from="128874985" id="128874985_305913666" to="305913666" /><edge from="305913666" id="305913666_151451933" to="151451933" /><edge from="151451933" id="151451933_305913661" to="305913661" /><edge from="305913661" id="305913661_305913663" to="305913663" /><edge from="305913663" id="305913663_128882514" to="128882514" /><edge from="128882514" id="128882514_1519470746" to="1519470746" /><edge from="1519470746" id="1519470746_31477172" to="31477172" /><edge from="31477172" id="31477172_1519470912" to="1519470912" /><edge from="1519470912" id="1519470912_283059741" to="283059741" /><edge from="283059741" id="283059741_129288570" to="129288570" /><edge from="129288570" id="129288570_2006021064" to="2006021064" /><edge from="2006021064" id="2006021064_5034416925" to="5034416925" /><edge from="5034416925" id="5034416925_1519470958" to="1519470958" /><edge from="1519470958" id="1519470958_4696480570" to="4696480570" /><edge from="4696480570" id="4696480570_319860962" to="319860962" /><edge from="319860962" id="319860962_4696480571" to="4696480571" /><edge from="4696480571" id="4696480571_1519471032" to="1519471032" /><edge from="1519471032" id="1519471032_1519471015" to="1519471015" /><edge from="1519471015" id="1519471015_1521014718" to="1521014718" /><edge from="1521014718" id="1521014718_31477171" to="31477171" /><edge from="31477171" id="31477171_1519471011" to="1519471011" /><edge from="1519471011" id="1519471011_355817578" to="355817578" /><edge from="355817578" id="355817578_355817533" to="355817533" /><edge from="355817533" id="355817533_2684469926" to="2684469926" /><edge from="2684469926" id="2684469926_1965865394" to="1965865394" /><edge from="1965865394" id="1965865394_266727401" to="266727401" /><edge from="266727401" id="266727401_1519470963" to="1519470963" /><edge from="1519470963" id="1519470963_1965865396" to="1965865396" /><edge from="1965865396" id="1965865396_1965865389" to="1965865389" /><edge from="1965865389" id="1965865389_1965865392" to="1965865392" /><edge from="1965865392" id="1965865392_370959804" to="370959804" /><edge from="370959804" id="370959804_1519470952" to="1519470952" /><edge from="1519470952" id="1519470952_1519470752" to="1519470752" /><edge from="1519470752" id="1519470752_384023184" to="384023184" /><edge from="384023184" id="384023184_3823791811" to="3823791811" /><edge from="3823791811" id="3823791811_493102261" to="493102261" /><edge from="493102261" id="493102261_384024182" to="384024182" /><edge from="384024182" id="384024182_493102256" to="493102256" /><edge from="493102256" id="493102256_384023187" to="384023187" /><edge from="384023187" id="384023187_151434597" to="151434597" /><edge from="151434597" id="151434597_151434675" to="151434675" /><edge from="151434675" id="151434675_151434539" to="151434539" /><edge from="151434539" id="151434539_603034258" to="603034258" /><edge from="603034258" id="603034258_2149732936" to="2149732936" /><edge from="2149732936" id="2149732936_151434703" to="151434703" /><edge from="151434703" id="151434703_603034267" to="603034267" /><edge from="603034267" id="603034267_233246975" to="233246975" /><edge from="233246975" id="233246975_233245054" to="233245054" /><edge from="233245054" id="233245054_233243550" to="233243550" /><edge from="233243550" id="233243550_2214002881" to="2214002881" /><edge from="2214002881" id="2214002881_233243431" to="233243431" /><edge from="233243431" id="233243431_2214002873" to="2214002873" /><edge from="2214002873" id="2214002873_574305305" to="574305305" /><edge from="574305305" id="574305305_574305307" to="574305307" /><edge from="574305307" id="574305307_233270706" to="233270706" /><edge from="233270706" id="233270706_384006280" to="384006280" /><edge from="384006280" id="384006280_384006291" to="384006291" /><edge from="384006291" id="384006291_401506303" to="401506303" /><edge from="401506303" id="401506303_384006377" to="384006377" /><edge from="384006377" id="384006377_384006381" to="384006381" /><edge from="384006381" id="384006381_233270671" to="233270671" /><edge from="233270671" id="233270671_233270747" to="233270747" /><edge from="233270747" id="233270747_574311880" to="574311880" /><edge from="574311880" id="574311880_233262857" to="233262857" /><edge from="233262857" id="233262857_233262833" to="233262833" /><edge from="233262833" id="233262833_448077310" to="448077310" /><edge from="448077310" id="448077310_233270824" to="233270824" /><edge from="233270824" id="233270824_233262815" to="233262815" /><edge from="233262815" id="233262815_679680988" to="679680988" /><edge from="679680988" id="679680988_679680985" to="679680985" /><edge from="679680985" id="679680985_384005174" to="384005174" /><edge from="384005174" id="384005174_2204643284" to="2204643284" /><edge from="2204643284" id="2204643284_233274958" to="233274958" /><edge from="233274958" id="233274958_2204643308" to="2204643308" /><edge from="2204643308" id="2204643308_361268957" to="361268957" /><edge from="361268957" id="361268957_540050221" to="540050221" /><edge from="540050221" id="540050221_540050220" to="540050220" /><edge from="540050220" id="540050220_540050219" to="540050219" /><edge from="540050219" id="540050219_389150540" to="389150540" /><edge from="389150540" id="389150540_389150537" to="389150537" /><edge from="389150537" id="389150537_388569480" to="388569480" /><edge from="388569480" id="388569480_4000075632" to="4000075632" /><edge from="4000075632" id="4000075632_2199393936" to="2199393936" /><edge from="2199393936" id="2199393936_4294474597" to="4294474597" /><edge from="4294474597" id="4294474597_4294474596" to="4294474596" /><edge from="4294474596" id="4294474596_2199393955" to="2199393955" /><edge from="2199393955" id="2199393955_4000075630" to="4000075630" /><edge from="4000075630" id="4000075630_4000075629" to="4000075629" /><edge from="4000075629" id="4000075629_4294470722" to="4294470722" /><edge from="4294470722" id="4294470722_244222136" to="244222136" /><edge from="244222136" id="244222136_230778341" to="230778341" /><edge from="230778341" id="230778341_140980641" to="140980641" /><edge from="140980641" id="140980641_600326363" to="600326363" /><edge from="600326363" id="600326363_600326375" to="600326375" /><edge from="600326375" id="600326375_233315158" to="233315158" /><edge from="233315158" id="233315158_233315178" to="233315178" /><edge from="233315178" id="233315178_598142317" to="598142317" /><edge from="598142317" id="598142317_598142319" to="598142319" /><edge from="598142319" id="598142319_598142324" to="598142324" /><edge from="598142324" id="598142324_598142327" to="598142327" /><edge from="598142327" id="598142327_598142331" to="598142331" /><edge from="598142331" id="598142331_233315192" to="233315192" /><edge from="233315192" id="233315192_2766300605" to="2766300605" /><edge from="2766300605" id="2766300605_476210694" to="476210694" /><edge from="476210694" id="476210694_368380515" to="368380515" /><edge from="368380515" id="368380515_2717237174" to="2717237174" /><edge from="2717237174" id="2717237174_2717237172" to="2717237172" /><edge from="2717237172" id="2717237172_140980391" to="140980391" /><edge from="140980391" id="140980391_140980377" to="140980377" /><edge from="140980377" id="140980377_1287239238" to="1287239238" /><edge from="1287239238" id="1287239238_2717237169" to="2717237169" /><edge from="2717237169" id="2717237169_1287239225" to="1287239225" /><edge from="1287239225" id="1287239225_1287239228" to="1287239228" /><edge from="1287239228" id="1287239228_1287239221" to="1287239221" /><edge from="1287239221" id="1287239221_1287339209" to="1287339209" /><edge from="1287339209" id="1287339209_1287239245" to="1287239245" /><edge from="1287239245" id="1287239245_1287239271" to="1287239271" /><edge from="1287239271" id="1287239271_1287239240" to="1287239240" /><edge from="1287239240" id="1287239240_1287339281" to="1287339281" /><edge from="1287339281" id="1287339281_1287239206" to="1287239206" /><edge from="1287239206" id="1287239206_1985549819" to="1985549819" /><edge from="1985549819" id="1985549819_370230657" to="370230657" /><edge from="370230657" id="370230657_366082639" to="366082639" /><edge from="366082639" id="366082639_1725216267" to="1725216267" /><edge from="1725216267" id="1725216267_137181198" to="137181198" /><edge from="137181198" id="137181198_367849057" to="367849057" /><edge from="367849057" id="367849057_137181126" to="137181126" /><edge from="137181126" id="137181126_677245571" to="677245571" /><edge from="677245571" id="677245571_367849048" to="367849048" /><edge from="367849048" id="367849048_137181091" to="137181091" /><edge from="137181091" id="137181091_330775681" to="330775681" /><edge from="330775681" id="330775681_1985546060" to="1985546060" /><edge from="1985546060" id="1985546060_137182981" to="137182981" /><edge from="137182981" id="137182981_356215206" to="356215206" /><edge from="356215206" id="356215206_356215182" to="356215182" /><edge from="356215182" id="356215182_356215222" to="356215222" /><edge from="356215222" id="356215222_356215218" to="356215218" /><edge from="356215218" id="356215218_356215170" to="356215170" /><edge from="356215170" id="356215170_356215152" to="356215152" /><edge from="356215152" id="356215152_356215157" to="356215157" /><edge from="356215157" id="356215157_356215162" to="356215162" /><edge from="356215162" id="356215162_2505811398" to="2505811398" /><edge from="2505811398" id="2505811398_1492410162" to="1492410162" /><edge from="1492410162" id="1492410162_1492410185" to="1492410185" /><edge from="1492410185" id="1492410185_1492410156" to="1492410156" /><edge from="1492410156" id="1492410156_1492410217" to="1492410217" /><edge from="1492410217" id="1492410217_1492410213" to="1492410213" /><edge from="1492410213" id="1492410213_312718905" to="312718905" /><edge from="312718905" id="312718905_775942860" to="775942860" /><edge from="775942860" id="775942860_33238476" to="33238476" /><edge from="33238476" id="33238476_3933082771" to="3933082771" /><edge from="3933082771" id="3933082771_312718293" to="312718293" /><edge from="312718293" id="312718293_52600140" to="52600140" /><edge from="52600140" id="52600140_1725216623" to="1725216623" /><edge from="1725216623" id="1725216623_3933082767" to="3933082767" /><edge from="3933082767" id="3933082767_52600163" to="52600163" /><edge from="52600163" id="52600163_777828239" to="777828239" /><edge from="777828239" id="777828239_2383215085" to="2383215085" /><edge from="2383215085" id="2383215085_307350280" to="307350280" /><edge from="307350280" id="307350280_777833057" to="777833057" /><edge from="777833057" id="777833057_777829815" to="777829815" /><edge from="777829815" id="777829815_777829277" to="777829277" /><edge from="777829277" id="777829277_777832607" to="777832607" /><edge from="777832607" id="777832607_307350279" to="307350279" /><edge from="307350279" id="307350279_777831467" to="777831467" /><edge from="777831467" id="777831467_777827023" to="777827023" /><edge from="777827023" id="777827023_777826283" to="777826283" /><edge from="777826283" id="777826283_777826228" to="777826228" /><edge from="777826228" id="777826228_30943324" to="30943324" /><edge from="30943324" id="30943324_780909297" to="780909297" /><edge from="780909297" id="780909297_780910447" to="780910447" /><edge from="780910447" id="780910447_780910234" to="780910234" /><edge from="780910234" id="780910234_780909517" to="780909517" /><edge from="780909517" id="780909517_89531904" to="89531904" /><edge from="89531904" id="89531904_3933082774" to="3933082774" /><edge from="3933082774" id="3933082774_611991914" to="611991914" /><edge from="611991914" id="611991914_611991913" to="611991913" /><edge from="611991913" id="611991913_3218293558" to="3218293558" /><edge from="3218293558" id="3218293558_767737822" to="767737822" /><edge from="767737822" id="767737822_767737819" to="767737819" /><edge from="767737819" id="767737819_1833123399" to="1833123399" /><edge from="1833123399" id="1833123399_282825888" to="282825888" /><edge from="282825888" id="282825888_444806533" to="444806533" /><edge from="444806533" id="444806533_781036785" to="781036785" /><edge from="781036785" id="781036785_611991922" to="611991922" /><edge from="611991922" id="611991922_611991925" to="611991925" /><edge from="611991925" id="611991925_611991917" to="611991917" /><edge from="611991917" id="611991917_611991907" to="611991907" /><edge from="611991907" id="611991907_1927187700" to="1927187700" /><edge from="1927187700" id="1927187700_282825882" to="282825882" /><edge from="282825882" id="282825882_444806546" to="444806546" /><edge from="444806546" id="444806546_2640755142" to="2640755142" /><edge from="2640755142" id="2640755142_387153077" to="387153077" /><edge from="387153077" id="387153077_387153076" to="387153076" /><edge from="387153076" id="387153076_3933085096" to="3933085096" /><edge from="3933085096" id="3933085096_287629316" to="287629316" /><edge from="287629316" id="287629316_1833126497" to="1833126497" /><edge from="1833126497" id="1833126497_1833123395" to="1833123395" /><edge from="1833123395" id="1833123395_1927197437" to="1927197437" /><edge from="1927197437" id="1927197437_282825839" to="282825839" /><edge from="282825839" id="282825839_1927197435" to="1927197435" /><edge from="1927197435" id="1927197435_282825831" to="282825831" /><edge from="282825831" id="282825831_1927197433" to="1927197433" /><edge from="1927197433" id="1927197433_1927197438" to="1927197438" /><edge from="1927197438" id="1927197438_282825830" to="282825830" /><edge from="282825830" id="282825830_287629353" to="287629353" /><edge from="287629353" id="287629353_287629359" to="287629359" /><edge from="287629359" id="287629359_287629366" to="287629366" /><edge from="287629366" id="287629366_287629363" to="287629363" /><edge from="287629363" id="287629363_287629372" to="287629372" /><edge from="287629372" id="287629372_4730421708" to="4730421708" /><edge from="4730421708" id="4730421708_4730421707" to="4730421707" /><edge from="4730421707" id="4730421707_781023109" to="781023109" /><edge from="781023109" id="781023109_781093034" to="781093034" /><edge from="781093034" id="781093034_387153070" to="387153070" /><edge from="387153070" id="387153070_780995790" to="780995790" /><edge from="780995790" id="780995790_838386039" to="838386039" /><edge from="838386039" id="838386039_781112997" to="781112997" /><edge from="781112997" id="781112997_781112995" to="781112995" /><edge from="781112995" id="781112995_781112992" to="781112992" /><edge from="781112992" id="781112992_33317568" to="33317568" /><edge from="33317568" id="33317568_2365009329" to="2365009329" /><edge from="2365009329" id="2365009329_838386042" to="838386042" /><edge from="838386042" id="838386042_781112986" to="781112986" /><edge from="781112986" id="781112986_3218293524" to="3218293524" /><edge from="3218293524" id="3218293524_781137525" to="781137525" /><edge from="781137525" id="781137525_2207974398" to="2207974398" /><edge from="2207974398" id="2207974398_781137430" to="781137430" /><edge from="781137430" id="781137430_781093248" to="781093248" /><edge from="781093248" id="781093248_287630690" to="287630690" /><edge from="287630690" id="287630690_3218293522" to="3218293522" /><edge from="3218293522" id="3218293522_287630684" to="287630684" /><edge from="287630684" id="287630684_287630673" to="287630673" /><edge from="287630673" id="287630673_287630670" to="287630670" /><edge from="287630670" id="287630670_287630661" to="287630661" /><edge from="287630661" id="287630661_387152942" to="387152942" /><edge from="387152942" id="387152942_702451433" to="702451433" /><edge from="702451433" id="702451433_702451699" to="702451699" /><edge from="702451699" id="702451699_3394764076" to="3394764076" /><edge from="3394764076" id="3394764076_387152931" to="387152931" /><edge from="387152931" id="387152931_287630734" to="287630734" /><edge from="287630734" id="287630734_702450201" to="702450201" /><edge from="702450201" id="702450201_4633573547" to="4633573547" /><edge from="4633573547" id="4633573547_4633573546" to="4633573546" /><edge from="4633573546" id="4633573546_287630739" to="287630739" /><edge from="287630739" id="287630739_4633573544" to="4633573544" /><edge from="4633573544" id="4633573544_702378611" to="702378611" /><edge from="702378611" id="702378611_332544824" to="332544824" /><edge from="332544824" id="332544824_332543902" to="332543902" /><edge from="332543902" id="332543902_3394781452" to="3394781452" /><edge from="3394781452" id="3394781452_702363904" to="702363904" /><edge from="702363904" id="702363904_130038130" to="130038130" /><edge from="130038130" id="130038130_130038129" to="130038129" /><edge from="130038129" id="130038129_702363903" to="702363903" /><edge from="702363903" id="702363903_130038128" to="130038128" /><edge from="130038128" id="130038128_130038127" to="130038127" /><edge from="130038127" id="130038127_306383379" to="306383379" /><edge from="306383379" id="306383379_702363855" to="702363855" /><edge from="702363855" id="702363855_702363888" to="702363888" /><edge from="702363888" id="702363888_30942253" to="30942253" /><edge from="30942253" id="30942253_702351483" to="702351483" /><edge from="702351483" id="702351483_702351482" to="702351482" /><edge from="702351482" id="702351482_702351481" to="702351481" /><edge from="702351481" id="702351481_130038331" to="130038331" /><edge from="130038331" id="130038331_130038330" to="130038330" /><edge from="130038330" id="130038330_130038296" to="130038296" /><edge from="130038296" id="130038296_130038295" to="130038295" /><edge from="130038295" id="130038295_130038294" to="130038294" /><edge from="130038294" id="130038294_130038293" to="130038293" /><edge from="130038293" id="130038293_130038292" to="130038292" /><edge from="130038292" id="130038292_30942252" to="30942252" /><edge from="30942252" id="30942252_30942249" to="30942249" /><edge from="30942249" id="30942249_702351475" to="702351475" /><edge from="702351475" id="702351475_30942248" to="30942248" /><edge from="30942248" id="30942248_76459457" to="76459457" /><edge from="76459457" id="76459457_702351474" to="702351474" /><edge from="702351474" id="702351474_130039046" to="130039046" /><edge from="130039046" id="130039046_702351473" to="702351473" /><edge from="702351473" id="702351473_702351447" to="702351447" /><edge from="702351447" id="702351447_130039064" to="130039064" /><edge from="130039064" id="130039064_3790949319" to="3790949319" /><edge from="3790949319" id="3790949319_1833875777" to="1833875777" /><edge from="1833875777" id="1833875777_3555805912" to="3555805912" /><edge from="3555805912" id="3555805912_4273053908" to="4273053908" /><edge from="4273053908" id="4273053908_3790949317" to="3790949317" /><edge from="3790949317" id="3790949317_3790949307" to="3790949307" /><edge from="3790949307" id="3790949307_130040068" to="130040068" /><edge from="130040068" id="130040068_583063758" to="583063758" /><edge from="583063758" id="583063758_3790949308" to="3790949308" /><edge from="3790949308" id="3790949308_583063770" to="583063770" /><edge from="583063770" id="583063770_583063769" to="583063769" /><edge from="583063769" id="583063769_583063768" to="583063768" /><edge from="583063768" id="583063768_583063767" to="583063767" /><edge from="583063767" id="583063767_583063766" to="583063766" /><edge from="583063766" id="583063766_583063765" to="583063765" /><edge from="583063765" id="583063765_583063764" to="583063764" /><edge from="583063764" id="583063764_583063763" to="583063763" /><edge from="583063763" id="583063763_583063762" to="583063762" /><edge from="583063762" id="583063762_583063761" to="583063761" /><edge from="583063761" id="583063761_583063760" to="583063760" /><edge from="583063760" id="583063760_583063759" to="583063759" /><edge from="583063759" id="583063759_583063751" to="583063751"