<edges><edge from="370708433" id="370708433_2612216102" to="2612216102" type="a" /><edge from="2612216102" id="2612216102_1833869065" to="1833869065" type="a" /><edge from="1833869065" id="1833869065_320852621" to="320852621" type="a" /><edge from="320852621" id="320852621_370708381" to="370708381" type="a" /><edge from="370708381" id="370708381_370708343" to="370708343" type="a" /><edge from="370708343" id="370708343_370708264" to="370708264" type="a" /><edge from="370708264" id="370708264_370708114" to="370708114" type="a" /><edge from="370708114" id="370708114_320852504" to="320852504" type="a" /><edge from="320852504" id="320852504_250291418" to="250291418" type="a" /><edge from="250291418" id="250291418_253546192" to="253546192" type="a" /><edge from="253546192" id="253546192_2100795462" to="2100795462" type="a" /><edge from="2100795462" id="2100795462_250291504" to="250291504" type="a" /><edge from="250291504" id="250291504_3855646545" to="3855646545" type="a" /><edge from="3855646545" id="3855646545_3359255438" to="3359255438" type="a" /><edge from="3359255438" id="3359255438_36022333" to="36022333" type="a" /><edge from="36022333" id="36022333_36022334" to="36022334" type="a" /><edge from="36022334" id="36022334_253546237" to="253546237" type="a" /><edge from="253546237" id="253546237_36022335" to="36022335" type="a" /><edge from="36022335" id="36022335_36022336" to="36022336" type="a" /><edge from="36022336" id="36022336_3855648786" to="3855648786" type="a" /><edge from="3855648786" id="3855648786_320846296" to="320846296" type="a" /><edge from="320846296" id="320846296_36022337" to="36022337" type="a" /><edge from="36022337" id="36022337_3855648395" to="3855648395" type="a" /><edge from="3855648395" id="3855648395_36022338" to="36022338" type="a" /><edge from="36022338" id="36022338_36022339" to="36022339" type="a" /><edge from="36022339" id="36022339_253549824" to="253549824" type="a" /><edge from="253549824" id="253549824_36022340" to="36022340" type="a" /><edge from="36022340" id="36022340_2268143517" to="2268143517" type="a" /><edge from="2268143517" id="2268143517_36022341" to="36022341" type="a" /><edge from="36022341" id="36022341_2268148332" to="2268148332" type="a" /><edge from="2268148332" id="2268148332_320846340" to="320846340" type="a" /><edge from="320846340" id="320846340_2268148328" to="2268148328" type="a" /><edge from="2268148328" id="2268148328_3359255435" to="3359255435" type="a" /><edge from="3359255435" id="3359255435_3359255433" to="3359255433" type="a" /><edge from="3359255433" id="3359255433_36022342" to="36022342" type="a" /><edge from="36022342" id="36022342_1833142699" to="1833142699" type="a" /><edge from="1833142699" id="1833142699_253752874" to="253752874" type="a" /><edge from="253752874" id="253752874_832391719" to="832391719" type="a" /><edge from="832391719" id="832391719_3215374640" to="3215374640" type="a" /><edge from="3215374640" id="3215374640_3215374641" to="3215374641" type="a" /><edge from="3215374641" id="3215374641_36022343" to="36022343" type="a" /><edge from="36022343" id="36022343_832357753" to="832357753" type="a" /><edge from="832357753" id="832357753_671323571" to="671323571" type="a" /><edge from="671323571" id="671323571_1277946732" to="1277946732" type="a" /><edge from="1277946732" id="1277946732_1277945635" to="1277945635" type="a" /><edge from="1277945635" id="1277945635_1277945612" to="1277945612" type="a" /><edge from="1277945612" id="1277945612_1277946726" to="1277946726" type="a" /><edge from="1277946726" id="1277946726_1277946734" to="1277946734" type="a" /><edge from="1277946734" id="1277946734_1277945674" to="1277945674" type="a" /><edge from="1277945674" id="1277945674_1277945625" to="1277945625" type="a" /><edge from="1277945625" id="1277945625_1277945666" to="1277945666" type="a" /><edge from="1277945666" id="1277945666_1277945626" to="1277945626" type="a" /><edge from="1277945626" id="1277945626_1277945616" to="1277945616" type="a" /><edge from="1277945616" id="1277945616_1277945601" to="1277945601" type="a" /><edge from="1277945601" id="1277945601_1277945597" to="1277945597" type="a" /><edge from="1277945597" id="1277945597_1277945624" to="1277945624" type="a" /><edge from="1277945624" id="1277945624_1277943048" to="1277943048" type="a" /><edge from="1277943048" id="1277943048_1277943051" to="1277943051" type="a" /><edge from="1277943051" id="1277943051_1277943062" to="1277943062" type="a" /><edge from="1277943062" id="1277943062_1277943031" to="1277943031" type="a" /><edge from="1277943031" id="1277943031_1279001028" to="1279001028" type="a" /><edge from="1279001028" id="1279001028_3019501916" to="3019501916" type="a" /><edge from="3019501916" id="3019501916_1277984546" to="1277984546" type="a" /><edge from="1277984546" id="1277984546_1277984621" to="1277984621" type="a" /><edge from="1277984621" id="1277984621_75105959" to="75105959" type="a" /><edge from="75105959" id="75105959_1277984635" to="1277984635" type="a" /><edge from="1277984635" id="1277984635_1277984720" to="1277984720" type="a" /><edge from="1277984720" id="1277984720_2471245050" to="2471245050" type="a" /><edge from="2471245050" id="2471245050_323098904" to="323098904" type="a" /><edge from="323098904" id="323098904_1277984670" to="1277984670" type="a" /><edge from="1277984670" id="1277984670_1277984706" to="1277984706" type="a" /><edge from="1277984706" id="1277984706_1277984610" to="1277984610" type="a" /><edge from="1277984610" id="1277984610_1277984684" to="1277984684" type="a" /><edge from="1277984684" id="1277984684_1277984552" to="1277984552" type="a" /><edge from="1277984552" id="1277984552_622950875" to="622950875" type="a" /><edge from="622950875" id="622950875_1277943037" to="1277943037" type="a" /><edge from="1277943037" id="1277943037_1277984655" to="1277984655" type="a" /><edge from="1277984655" id="1277984655_282416060" to="282416060" type="a" /><edge from="282416060" id="282416060_1277943040" to="1277943040" type="a" /><edge from="1277943040" id="1277943040_4413196757" to="4413196757" type="a" /><edge from="4413196757" id="4413196757_4413196759" to="4413196759" type="a" /><edge from="4413196759" id="4413196759_622950936" to="622950936" type="a" /><edge from="622950936" id="622950936_1055841933" to="1055841933" type="a" /><edge from="1055841933" id="1055841933_2382446760" to="2382446760" type="a" /><edge from="2382446760" id="2382446760_1055841931" to="1055841931" type="a" /><edge from="1055841931" id="1055841931_1055879458" to="1055879458" type="a" /><edge from="1055879458" id="1055879458_30940769" to="30940769" type="a" /><edge from="30940769" id="30940769_1055879468" to="1055879468" type="a" /><edge from="1055879468" id="1055879468_1055879518" to="1055879518" type="a" /><edge from="1055879518" id="1055879518_30942236" to="30942236" type="a" /><edge from="30942236" id="30942236_314470621" to="314470621" type="a" /><edge from="314470621" id="314470621_30942237" to="30942237" type="a" /><edge from="30942237" id="30942237_249996725" to="249996725" type="a" /><edge from="249996725" id="249996725_622959751" to="622959751" type="a" /><edge from="622959751" id="622959751_5536422989" to="5536422989" type="a" /><edge from="5536422989" id="5536422989_130042127" to="130042127" type="a" /><edge from="130042127" id="130042127_622959760" to="622959760" type="a" /><edge from="622959760" id="622959760_583197079" to="583197079" type="a" /><edge from="583197079" id="583197079_30942238" to="30942238" type="a" /><edge from="30942238" id="30942238_2479076495" to="2479076495" type="a" /><edge from="2479076495" id="2479076495_2479076496" to="2479076496" type="a" /><edge from="2479076496" id="2479076496_67610780" to="67610780" type="a" /><edge from="67610780" id="67610780_130042833" to="130042833" type="a" /><edge from="130042833" id="130042833_2479076502" to="2479076502" type="a" /><edge from="2479076502" id="2479076502_130042834" to="130042834" type="a" /><edge from="130042834" id="130042834_130042835" to="130042835" type="a" /><edge from="130042835" id="130042835_130042836" to="130042836" type="a" /><edge from="130042836" id="130042836_130042837" to="130042837" type="a" /><edge from="130042837" id="130042837_130042838" to="130042838" type="a" /><edge from="130042838" id="130042838_130042839" to="130042839" type="a" /><edge from="130042839" id="130042839_130042840" to="130042840" type="a" /><edge from="130042840" id="130042840_130042841" to="130042841" type="a" /><edge from="130042841" id="130042841_130042842" to="130042842" type="a" /><edge from="130042842" id="130042842_4273062718" to="4273062718" type="a" /><edge from="4273062718" id="4273062718_130042935" to="130042935" type="a" /><edge from="130042935" id="130042935_130042844" to="130042844" type="a" /><edge from="130042844" id="130042844_130042845" to="130042845" type="a" /><edge from="130042845" id="130042845_202661082" to="202661082" type="a" /><edge from="202661082" id="202661082_130042847" to="130042847" type="a" /><edge from="130042847" id="130042847_3790964227" to="3790964227" type="a" /><edge from="3790964227" id="3790964227_130042848" to="130042848" type="a" /><edge from="130042848" id="130042848_130042849" to="130042849" type="a" /><edge from="130042849" id="130042849_130042850" to="130042850" type="a" /><edge from="130042850" id="130042850_130042851" to="130042851" type="a" /><edge from="130042851" id="130042851_130042852" to="130042852" type="a" /><edge from="130042852" id="130042852_130042853" to="130042853" type="a" /><edge from="130042853" id="130042853_130042854" to="130042854" type="a" /><edge from="130042854" id="130042854_202519507" to="202519507" type="a" /><edge from="202519507" id="202519507_130042855" to="130042855" type="a" /><edge from="130042855" id="130042855_130042856" to="130042856" type="a" /><edge from="130042856" id="130042856_130042857" to="130042857" type="a" /><edge from="130042857" id="130042857_130042858" to="130042858" type="a" /><edge from="130042858" id="130042858_130042859" to="130042859" type="a" /><edge from="130042859" id="130042859_130042860" to="130042860" type="a" /><edge from="130042860" id="130042860_130042861" to="130042861" type="a" /><edge from="130042861" id="130042861_130042862" to="130042862" type="a" /><edge from="130042862" id="130042862_130042863" to="130042863" type="a" /><edge from="130042863" id="130042863_130042864" to="130042864" type="a" /><edge from="130042864" id="130042864_130042865" to="130042865" type="a" /><edge from="130042865" id="130042865_202520404" to="202520404" type="a" /><edge from="202520404" id="202520404_130042866" to="130042866" type="a" /><edge from="130042866" id="130042866_3326880153" to="3326880153" type="a" /><edge from="3326880153" id="3326880153_3326880156" to="3326880156" type="a" /><edge from="3326880156" id="3326880156_3326880159" to="3326880159" type="a" /><edge from="3326880159" id="3326880159_130043040" to="130043040" type="a" /><edge from="130043040" id="130043040_1112411372" to="1112411372" type="a" /><edge from="1112411372" id="1112411372_130042868" to="130042868" type="a" /><edge from="130042868" id="130042868_3326880158" to="3326880158" type="a" /><edge from="3326880158" id="3326880158_130042869" to="130042869" type="a" /><edge from="130042869" id="130042869_130042871" to="130042871" type="a" /><edge from="130042871" id="130042871_130042872" to="130042872" type="a" /><edge from="130042872" id="130042872_130042873" to="130042873" type="a" /><edge from="130042873" id="130042873_130042874" to="130042874" type="a" /><edge from="130042874" id="130042874_130043112" to="130043112" type="a" /><edge from="130043112" id="130043112_130042875" to="130042875" type="a" /><edge from="130042875" id="130042875_130042876" to="130042876" type="a" /><edge from="130042876" id="130042876_130042877" to="130042877" type="a" /><edge from="130042877" id="130042877_202473725" to="202473725" type="a" /><edge from="202473725" id="202473725_4794459318" to="4794459318" type="a" /><edge from="4794459318" id="4794459318_130042878" to="130042878" type="a" /><edge from="130042878" id="130042878_4794459427" to="4794459427" type="a" /><edge from="4794459427" id="4794459427_30942487" to="30942487" type="a" /><edge from="30942487" id="30942487_583063758" to="583063758" type="a" /><edge from="583063758" id="583063758_130040068" to="130040068" type="a" /><edge from="130040068" id="130040068_3790949307" to="3790949307" type="a" /><edge from="3790949307" id="3790949307_3790949317" to="3790949317" type="a" /><edge from="3790949317" id="3790949317_4273053908" to="4273053908" type="a" /><edge from="4273053908" id="4273053908_3555805912" to="3555805912" type="a" /><edge from="3555805912" id="3555805912_1833875777" to="1833875777" type="a" /><edge from="1833875777" id="1833875777_3790949319" to="3790949319" type="a" /><edge from="3790949319" id="3790949319_130039064" to="130039064" type="a" /><edge from="130039064" id="130039064_702351447" to="702351447" type="a" /><edge from="702351447" id="702351447_702351473" to="702351473" type="a" /><edge from="702351473" id="702351473_130039046" to="130039046" type="a" /><edge from="130039046" id="130039046_702351474" to="702351474" type="a" /><edge from="702351474" id="702351474_76459457" to="76459457" type="a" /><edge from="76459457" id="76459457_30942248" to="30942248" type="a" /><edge from="30942248" id="30942248_702351475" to="702351475" type="a" /><edge from="702351475" id="702351475_30942249" to="30942249" type="a" /><edge from="30942249" id="30942249_30942252" to="30942252" type="a" /><edge from="30942252" id="30942252_130038292" to="130038292" type="a" /><edge from="130038292" id="130038292_130038293" to="130038293" type="a" /><edge from="130038293" id="130038293_130038294" to="130038294" type="a" /><edge from="130038294" id="130038294_130038295" to="130038295" type="a" /><edge from="130038295" id="130038295_130038296" to="130038296" type="a" /><edge from="130038296" id="130038296_130038330" to="130038330" type="a" /><edge from="130038330" id="130038330_130038331" to="130038331" type="a" /><edge from="130038331" id="130038331_702351481" to="702351481" type="a" /><edge from="702351481" id="702351481_702351482" to="702351482" type="a" /><edge from="702351482" id="702351482_702351483" to="702351483" type="a" /><edge from="702351483" id="702351483_30942253" to="30942253" type="a" /><edge from="30942253" id="30942253_702363888" to="702363888" type="a" /><edge from="702363888" id="702363888_702363855" to="702363855" type="a" /><edge from="702363855" id="702363855_306383379" to="306383379" type="a" /><edge from="306383379" id="306383379_130038127" to="130038127" type="a" /><edge from="130038127" id="130038127_130038128" to="130038128" type="a" /><edge from="130038128" id="130038128_702363903" to="702363903" type="a" /><edge from="702363903" id="702363903_130038129" to="130038129" type="a" /><edge from="130038129" id="130038129_130038130" to="130038130" type="a" /><edge from="130038130" id="130038130_702363904" to="702363904" type="a" /><edge from="702363904" id="702363904_3394781452" to="3394781452" type="a" /><edge from="3394781452" id="3394781452_332543902" to="332543902" type="a" /><edge from="332543902" id="332543902_332544824" to="332544824" type="a" /><edge from="332544824" id="332544824_702378611" to="702378611" type="a" /><edge from="702378611" id="702378611_4633573544" to="4633573544" type="a" /><edge from="4633573544" id="4633573544_287630739" to="287630739" type="a" /><edge from="287630739" id="287630739_4633573546" to="4633573546" type="a" /><edge from="4633573546" id="4633573546_4633573547" to="4633573547" type="a" /><edge from="4633573547" id="4633573547_702450201" to="702450201" type="a" /><edge from="702450201" id="702450201_287630734" to="287630734" type="a" /><edge from="287630734" id="287630734_387152931" to="387152931" type="a" /><edge from="387152931" id="387152931_287630727" to="287630727" type="a" /><edge from="287630727" id="287630727_387153047" to="387153047" type="a" /><edge from="387153047" id="387153047_767585539" to="767585539" type="a" /><edge from="767585539" id="767585539_3394779114" to="3394779114" type="a" /><edge from="3394779114" id="3394779114_471259500" to="471259500" type="a" /><edge from="471259500" id="471259500_702451422" to="702451422" type="a" /><edge from="702451422" id="702451422_702462230" to="702462230" type="a" /><edge from="702462230" id="702462230_702451424" to="702451424" type="a" /><edge from="702451424" id="702451424_702451481" to="702451481" type="a" /><edge from="702451481" id="702451481_702451486" to="702451486" type="a" /><edge from="702451486" id="702451486_3218293536" to="3218293536" type="a" /><edge from="3218293536" id="3218293536_43251976" to="43251976" type="a" /><edge from="43251976" id="43251976_702459973" to="702459973" type="a" /><edge from="702459973" id="702459973_702459975" to="702459975" type="a" /><edge from="702459975" id="702459975_702459892" to="702459892" type="a" /><edge from="702459892" id="702459892_287629445" to="287629445" type="a" /><edge from="287629445" id="287629445_702459929" to="702459929" type="a" /><edge from="702459929" id="702459929_702465421" to="702465421" type="a" /><edge from="702465421" id="702465421_702465424" to="702465424" type="a" /><edge from="702465424" id="702465424_780979435" to="780979435" type="a" /><edge from="780979435" id="780979435_780982646" to="780982646" type="a" /><edge from="780982646" id="780982646_777778530" to="777778530" type="a" /><edge from="777778530" id="777778530_777778529" to="777778529" type="a" /><edge from="777778529" id="777778529_777778380" to="777778380" type="a" /><edge from="777778380" id="777778380_777775583" to="777775583" type="a" /><edge from="777775583" id="777775583_777775931" to="777775931" type="a" /><edge from="777775931" id="777775931_777778385" to="777778385" type="a" /><edge from="777778385" id="777778385_777778387" to="777778387" type="a" /><edge from="777778387" id="777778387_781005199" to="781005199" type="a" /><edge from="781005199" id="781005199_777778344" to="777778344" type="a" /><edge from="777778344" id="777778344_777778351" to="777778351" type="a" /><edge from="777778351" id="777778351_781005210" to="781005210" type="a" /><edge from="781005210" id="781005210_777778391" to="777778391" type="a" /><edge from="777778391" id="777778391_777787198" to="777787198" type="a" /><edge from="777787198" id="777787198_777778398" to="777778398" type="a" /><edge from="777778398" id="777778398_777778401" to="777778401" type="a" /><edge from="777778401" id="777778401_777787206" to="777787206" type="a" /><edge from="777787206" id="777787206_777710168" to="777710168" type="a" /><edge from="777710168" id="777710168_777721838" to="777721838" type="a" /><edge from="777721838" id="777721838_777710193" to="777710193" type="a" /><edge from="777710193" id="777710193_777746939" to="777746939" type="a" /><edge from="777746939" id="777746939_777703067" to="777703067" type="a" /><edge from="777703067" id="777703067_777743666" to="777743666" type="a" /><edge from="777743666" id="777743666_777703071" to="777703071" type="a" /><edge from="777703071" id="777703071_777697587" to="777697587" type="a" /><edge from="777697587" id="777697587_777697592" to="777697592" type="a" /><edge from="777697592" id="777697592_777697599" to="777697599" type="a" /><edge from="777697599" id="777697599_777696327" to="777696327" type="a" /><edge from="777696327" id="777696327_777759693" to="777759693" type="a" /><edge from="777759693" id="777759693_774545122" to="774545122" type="a" /><edge from="774545122" id="774545122_2383215095" to="2383215095" type="a" /><edge from="2383215095" id="2383215095_774545099" to="774545099" type="a" /><edge from="774545099" id="774545099_775933376" to="775933376" type="a" /><edge from="775933376" id="775933376_775933377" to="775933377" type="a" /><edge from="775933377" id="775933377_775933327" to="775933327" type="a" /><edge from="775933327" id="775933327_774546370" to="774546370" type="a" /><edge from="774546370" id="774546370_2991935464" to="2991935464" type="a" /><edge from="2991935464" id="2991935464_1895925155" to="1895925155" type="a" /><edge from="1895925155" id="1895925155_774546372" to="774546372" type="a" /><edge from="774546372" id="774546372_775941588" to="775941588" type="a" /><edge from="775941588" id="775941588_775945874" to="775945874" type="a" /><edge from="775945874" id="775945874_774546373" to="774546373" type="a" /><edge from="774546373" id="774546373_775941673" to="775941673" type="a" /><edge from="775941673" id="775941673_774546374" to="774546374" type="a" /><edge from="774546374" id="774546374_1725216852" to="1725216852" type="a" /><edge from="1725216852" id="1725216852_777771693" to="777771693" type="a" /><edge from="777771693" id="777771693_774547223" to="774547223" type="a" /><edge from="774547223" id="774547223_1900213541" to="1900213541" type="a" /><edge from="1900213541" id="1900213541_775942450" to="775942450" type="a" /><edge from="775942450" id="775942450_4005305751" to="4005305751" type="a" /><edge from="4005305751" id="4005305751_3933086393" to="3933086393" type="a" /><edge from="3933086393" id="3933086393_1492410214" to="1492410214" type="a" /><edge from="1492410214" id="1492410214_1492410198" to="1492410198" type="a" /><edge from="1492410198" id="1492410198_1492410163" to="1492410163" type="a" /><edge from="1492410163" id="1492410163_1492410147" to="1492410147" type="a" /><edge from="1492410147" id="1492410147_317535746" to="317535746" type="a" /><edge from="317535746" id="317535746_3933086388" to="3933086388" type="a" /><edge from="3933086388" id="3933086388_33675682" to="33675682" type="a" /><edge from="33675682" id="33675682_1725216871" to="1725216871" type="a" /><edge from="1725216871" id="1725216871_291210710" to="291210710" type="a" /><edge from="291210710" id="291210710_3933094370" to="3933094370" type="a" /><edge from="3933094370" id="3933094370_1985549822" to="1985549822" type="a" /><edge from="1985549822" id="1985549822_30287319" to="30287319" type="a" /><edge from="30287319" id="30287319_1985551133" to="1985551133" type="a" /><edge from="1985551133" id="1985551133_319157174" to="319157174" type="a" /><edge from="319157174" id="319157174_30287324" to="30287324" type="a" /><edge from="30287324" id="30287324_30287325" to="30287325" type="a" /><edge from="30287325" id="30287325_319157897" to="319157897" type="a" /><edge from="319157897" id="319157897_3933095115" to="3933095115" type="a" /><edge from="3933095115" id="3933095115_34157905" to="34157905" type="a" /><edge from="34157905" id="34157905_30220444" to="30220444" type="a" /><edge from="30220444" id="30220444_3345188400" to="3345188400" type="a" /><edge from="3345188400" id="3345188400_3933095112" to="3933095112" type="a" /><edge from="3933095112" id="3933095112_767584716" to="767584716" type="a" /><edge from="767584716" id="767584716_501027474" to="501027474" type="a" /><edge from="501027474" id="501027474_501027471" to="501027471" type="a" /><edge from="501027471" id="501027471_3933095114" to="3933095114" type="a" /><edge from="3933095114" id="3933095114_3937111755" to="3937111755" type="a" /><edge from="3937111755" id="3937111755_767582212" to="767582212" type="a" /><edge from="767582212" id="767582212_4000075641" to="4000075641" type="a" /><edge from="4000075641" id="4000075641_767661756" to="767661756" type="a" /><edge from="767661756" id="767661756_767584894" to="767584894" type="a" /><edge from="767584894" id="767584894_2384091375" to="2384091375" type="a" /><edge from="2384091375" id="2384091375_2384091376" to="2384091376" type="a" /><edge from="2384091376" id="2384091376_767587081" to="767587081" type="a" /><edge from="767587081" id="767587081_767665017" to="767665017" type="a" /><edge from="767665017" id="767665017_3937113664" to="3937113664" type="a" /><edge from="3937113664" id="3937113664_477079436" to="477079436" type="a" /><edge from="477079436" id="477079436_477079437" to="477079437" type="a" /><edge from="477079437" id="477079437_2096319043" to="2096319043" type="a" /><edge from="2096319043" id="2096319043_233274930" to="233274930" type="a" /><edge from="233274930" id="233274930_30945324" to="30945324" type="a" /><edge from="30945324" id="30945324_2189377523" to="2189377523" type="a" /><edge from="2189377523" id="2189377523_3419344105" to="3419344105" type="a" /><edge from="3419344105" id="3419344105_4283908116" to="4283908116" type="a" /><edge from="4283908116" id="4283908116_4283908117" to="4283908117" type="a" /><edge from="4283908117" id="4283908117_30287465" to="30287465" type="a" /><edge from="30287465" id="30287465_224750232" to="224750232" type="a" /><edge from="224750232" id="224750232_3937111753" to="3937111753" type="a" /><edge from="3937111753" id="3937111753_3419339847" to="3419339847" type="a" /><edge from="3419339847" id="3419339847_30945575" to="30945575" type="a" /><edge from="30945575" id="30945575_269335260" to="269335260" type="a" /><edge from="269335260" id="269335260_2368035914" to="2368035914" type="a" /><edge from="2368035914" id="2368035914_628761345" to="628761345" type="a" /><edge from="628761345" id="628761345_2358071077" to="2358071077" type="a" /><edge from="2358071077" id="2358071077_224750388" to="224750388" type="a" /><edge from="224750388" id="224750388_224750434" to="224750434" type="a" /><edge from="224750434" id="224750434_30220702" to="30220702" type="a" /><edge from="30220702" id="30220702_3281073163" to="3281073163" type="a" /><edge from="3281073163" id="3281073163_241807173" to="241807173" type="a" /><edge from="241807173" id="241807173_4936948367" to="4936948367" type="a" /><edge from="4936948367" id="4936948367_1713460586" to="1713460586" type="a" /><edge from="1713460586" id="1713460586_2237633849" to="2237633849" type="a" /><edge from="2237633849" id="2237633849_2237633848" to="2237633848" type="a" /><edge from="2237633848" id="2237633848_30220684" to="30220684" type="a" /><edge from="30220684" id="30220684_3281070305" to="3281070305" type="a" /><edge from="3281070305" id="3281070305_372998488" to="372998488" type="a" /><edge from="372998488" id="372998488_373003030" to="373003030" type="a" /><edge from="373003030" id="373003030_372998848" to="372998848" type="a" /><edge from="372998848" id="372998848_224738413" to="224738413" type="a" /><edge from="224738413" id="224738413_2372885312" to="2372885312" type="a" /><edge from="2372885312" id="2372885312_2372885314" to="2372885314" type="a" /><edge from="2372885314" id="2372885314_223007318" to="223007318" type="a" /><edge from="223007318" id="223007318_4283908095" to="4283908095" type="a" /><edge from="4283908095" id="4283908095_30287528" to="30287528" type="a" /><edge from="30287528" id="30287528_2081997803" to="2081997803" type="a" /><edge from="2081997803" id="2081997803_3987365913" to="3987365913" type="a" /><edge from="3987365913" id="3987365913_248969195" to="248969195" type="a" /><edge from="248969195" id="248969195_1889062696" to="1889062696" type="a" /><edge from="1889062696" id="1889062696_30220445" to="30220445" type="a" /><edge from="30220445" id="30220445_2189358937" to="2189358937" type="a" /><edge from="2189358937" id="2189358937_746428618" to="746428618" type="a" /><edge from="746428618" id="746428618_4061053437" to="4061053437" type="a" /><edge from="4061053437" id="4061053437_4061053440" to="4061053440" type="a" /><edge from="4061053440" id="4061053440_4061053446" to="4061053446" type="a" /><edge from="4061053446" id="4061053446_4061053447" to="4061053447" type="a" /><edge from="4061053447" id="4061053447_4061053449" to="4061053449" type="a" /><edge from="4061053449" id="4061053449_4061053450" to="4061053450" type="a" /><edge from="4061053450" id="4061053450_4061053453" to="4061053453" type="a" /><edge from="4061053453" id="4061053453_4061053456" to="4061053456" type="a" /><edge from="4061053456" id="4061053456_129953605" to="129953605" type="a" /><edge from="129953605" id="129953605_248746687" to="248746687" type="a" /><edge from="248746687" id="248746687_224763532" to="224763532" type="a" /><edge from="224763532" id="224763532_355818907" to="355818907" type="a" /><edge from="355818907" id="355818907_4061053475" to="4061053475" type="a" /><edge from="4061053475" id="4061053475_4061053484" to="4061053484" type="a" /><edge from="4061053484" id="4061053484_30404320" to="30404320" type="a" /><edge from="30404320" id="30404320_4110787845" to="4110787845" type="a" /><edge from="4110787845" id="4110787845_355818836" to="355818836" type="a" /><edge from="355818836" id="355818836_1404234340" to="1404234340" type="a" /><edge from="1404234340" id="1404234340_129953571" to="129953571" type="a" /><edge from="129953571" id="129953571_355818807" to="355818807" type="a" /><edge from="355818807" id="355818807_129952492" to="129952492" type="a" /><edge from="129952492" id="129952492_224765801" to="224765801" type="a" /><edge from="224765801" id="224765801_30947901" to="30947901" type="a" /><edge from="30947901" id="30947901_2237521759" to="2237521759" type="a" /><edge from="2237521759" id="2237521759_250480666" to="250480666" type="a" /><edge from="250480666" id="250480666_250480669" to="250480669" type="a" /><edge from="250480669" id="250480669_30948020" to="30948020" type="a" /><edge from="30948020" id="30948020_250480655" to="250480655" type="a" /><edge from="250480655" id="250480655_705744124" to="705744124" type="a" /><edge from="705744124" id="705744124_30947983" to="30947983" type="a" /><edge from="30947983" id="30947983_250480649" to="250480649" type="a" /><edge from="250480649" id="250480649_30947985" to="30947985" type="a" /><edge from="30947985" id="30947985_250480641" to="250480641" type="a" /><edge from="250480641" id="250480641_250480609" to="250480609" type="a" /><edge from="250480609" id="250480609_250479836" to="250479836" type="a" /><edge from="250479836" id="250479836_2013560660" to="2013560660" type="a" /><edge from="2013560660" id="2013560660_30948116" to="30948116" type="a" /