<routes><vType accel="0.7" decel="6.8" id="Car0" length="9.1" maxSpeed="114" sigma="0.801196557521" /><vType accel="1.3" decel="3.9" id="Car1" length="6.2" maxSpeed="101" sigma="0.146387654709" /><vType accel="1.4" decel="2.9" id="Car2" length="19.7" maxSpeed="111" sigma="0.725062664759" /><vType accel="1.0" decel="5.3" id="Car3" length="17.8" maxSpeed="120" sigma="0.732172500677" /><vType accel="3.0" decel="5.5" id="Car4" length="10.7" maxSpeed="81" sigma="0.11646411169" /><vType accel="0.7" decel="5.8" id="Car5" length="16.3" maxSpeed="66" sigma="0.774567454193" /><vType accel="0.7" decel="7.5" id="Car6" length="14.2" maxSpeed="105" sigma="0.397656367357" /><vType accel="2.8" decel="7.4" id="Car7" length="22.4" maxSpeed="110" sigma="0.152053101239" /><vType accel="2.8" decel="4.6" id="Car8" length="9.3" maxSpeed="107" sigma="0.772125721998" /><vType accel="0.9" decel="7.4" id="Car9" length="12.1" maxSpeed="96" sigma="0.390134272289" /><vType accel="4.7" decel="6.5" id="Car10" length="7.4" maxSpeed="106" sigma="0.589000753846" /><vType accel="1.5" decel="2.1" id="Car11" length="19.9" maxSpeed="82" sigma="0.412532309484" /><vType accel="2.4" decel="7.5" id="Car12" length="16.9" maxSpeed="117" sigma="0.703824879693" /><vType accel="4.9" decel="6.3" id="Car13" length="23.5" maxSpeed="61" sigma="0.872924313503" /><vType accel="2.0" decel="7.7" id="Car14" length="19.9" maxSpeed="78" sigma="0.298729278395" /><vType accel="3.2" decel="3.2" id="Car15" length="12.2" maxSpeed="99" sigma="0.611294020998" /><vType accel="3.4" decel="3.9" id="Car16" length="7.6" maxSpeed="114" sigma="0.769794261369" /><vType accel="2.4" decel="7.2" id="Car17" length="14.9" maxSpeed="101" sigma="0.181880873418" /><vType accel="1.3" decel="6.3" id="Car18" length="19.7" maxSpeed="88" sigma="0.519196345435" /><vType accel="1.8" decel="5.6" id="Car19" length="24.8" maxSpeed="93" sigma="0.258840437677" /><vType accel="1.8" decel="5.6" id="back_car" length="24.8" maxSpeed="93" sigma="0.258840437677" /><route edges="370708433_2612216102 2612216102_1833869065 1833869065_320852621 320852621_370708381 370708381_370708343 370708343_370708264 370708264_370708114 370708114_320852504 320852504_250291418 250291418_253546192 253546192_2100795462 2100795462_250291504 250291504_3855646545 3855646545_3359255438 3359255438_36022333 36022333_36022334 36022334_253546237 253546237_36022335 36022335_36022336 36022336_3855648786 3855648786_320846296 320846296_36022337 36022337_3855648395 3855648395_36022338 36022338_36022339 36022339_253549824 253549824_36022340 36022340_2268143517 2268143517_36022341 36022341_2268148332 2268148332_320846340 320846340_2268148328 2268148328_3359255435 3359255435_3359255433 3359255433_36022342 36022342_1833142699 1833142699_253752874 253752874_832391719 832391719_3215374640 3215374640_3215374641 3215374641_36022343 36022343_832357753 832357753_671323571 671323571_1277946732 1277946732_1277945635 1277945635_1277945612 1277945612_1277946726 1277946726_1277946734 1277946734_1277945674 1277945674_1277945625 1277945625_1277945666 1277945666_1277945626 1277945626_1277945616 1277945616_1277945601 1277945601_1277945597 1277945597_1277945624 1277945624_1277943048 1277943048_1277943051 1277943051_1277943062 1277943062_1277943031 1277943031_1279001028 1279001028_3019501916 3019501916_1277984546 1277984546_1277984621 1277984621_75105959 75105959_1277984635 1277984635_1277984720 1277984720_2471245050 2471245050_323098904 323098904_1277984670 1277984670_1277984706 1277984706_1277984610 1277984610_1277984684 1277984684_1277984552 1277984552_622950875 622950875_1277943037 1277943037_1277984655 1277984655_282416060 282416060_1277943040 1277943040_4413196757 4413196757_4413196759 4413196759_622950936 622950936_1055841933 1055841933_2382446760 2382446760_1055841931 1055841931_1055879458 1055879458_30940769 30940769_1055879468 1055879468_1055879518 1055879518_30942236 30942236_314470621 314470621_30942237 30942237_249996725 249996725_622959751 622959751_5536422989 5536422989_130042127 130042127_622959760 622959760_583197079 583197079_30942238 30942238_2479076495 2479076495_2479076496 2479076496_67610780 67610780_130042833 130042833_2479076502 2479076502_130042834 130042834_130042835 130042835_130042836 130042836_130042837 130042837_130042838 130042838_130042839 130042839_130042840 130042840_130042841 130042841_130042842 130042842_4273062718 4273062718_130042935 130042935_130042844 130042844_130042845 130042845_202661082 202661082_130042847 130042847_3790964227 3790964227_130042848 130042848_130042849 130042849_130042850 130042850_130042851 130042851_130042852 130042852_130042853 130042853_130042854 130042854_202519507 202519507_130042855 130042855_130042856 130042856_130042857 130042857_130042858 130042858_130042859 130042859_130042860 130042860_130042861 130042861_130042862 130042862_130042863 130042863_130042864 130042864_130042865 130042865_202520404 202520404_130042866 130042866_3326880153 3326880153_3326880156 3326880156_3326880159 3326880159_130043040 130043040_1112411372 1112411372_130042868 130042868_3326880158 3326880158_130042869 130042869_130042871 130042871_130042872 130042872_130042873 130042873_130042874 130042874_130043112 130043112_130042875 130042875_130042876 130042876_130042877 130042877_202473725 202473725_4794459318 4794459318_130042878 130042878_4794459427 4794459427_30942487 30942487_583063758 583063758_130040068 130040068_3790949307 3790949307_3790949317 3790949317_4273053908 4273053908_3555805912 3555805912_1833875777 1833875777_3790949319 3790949319_130039064 130039064_702351447 702351447_702351473 702351473_130039046 130039046_702351474 702351474_76459457 76459457_30942248 30942248_702351475 702351475_30942249 30942249_30942252 30942252_130038292 130038292_130038293 130038293_130038294 130038294_130038295 130038295_130038296 130038296_130038330 130038330_130038331 130038331_702351481 702351481_702351482 702351482_702351483 702351483_30942253 30942253_702363888 702363888_702363855 702363855_306383379 306383379_130038127 130038127_130038128 130038128_702363903 702363903_130038129 130038129_130038130 130038130_702363904 702363904_3394781452 3394781452_332543902 332543902_332544824 332544824_702378611 702378611_4633573544 4633573544_287630739 287630739_4633573546 4633573546_4633573547 4633573547_702450201 702450201_287630734 287630734_387152931 387152931_287630727 287630727_387153047 387153047_767585539 767585539_3394779114 3394779114_471259500 471259500_702451422 702451422_702462230 702462230_702451424 702451424_702451481 702451481_702451486 702451486_3218293536 3218293536_43251976 43251976_702459973 702459973_702459975 702459975_702459892 702459892_287629445 287629445_702459929 702459929_702465421 702465421_702465424 702465424_780979435 780979435_780982646 780982646_777778530 777778530_777778529 777778529_777778380 777778380_777775583 777775583_777775931 777775931_777778385 777778385_777778387 777778387_781005199 781005199_777778344 777778344_777778351 777778351_781005210 781005210_777778391 777778391_777787198 777787198_777778398 777778398_777778401 777778401_777787206 777787206_777710168 777710168_777721838 777721838_777710193 777710193_777746939 777746939_777703067 777703067_777743666 777743666_777703071 777703071_777697587 777697587_777697592 777697592_777697599 777697599_777696327 777696327_777759693 777759693_774545122 774545122_2383215095 2383215095_774545099 774545099_775933376 775933376_775933377 775933377_775933327 775933327_774546370 774546370_2991935464 2991935464_1895925155 1895925155_774546372 774546372_775941588 775941588_775945874 775945874_774546373 774546373_775941673 775941673_774546374 774546374_1725216852 1725216852_777771693 777771693_774547223 774547223_1900213541 1900213541_775942450 775942450_4005305751 4005305751_3933086393 3933086393_1492410214 1492410214_1492410198 1492410198_1492410163 1492410163_1492410147 1492410147_317535746 317535746_3933086388 3933086388_33675682 33675682_1725216871 1725216871_291210710 291210710_3933094370 3933094370_1985549822 1985549822_30287319 30287319_1985551133 1985551133_319157174 319157174_30287324 30287324_30287325 30287325_319157897 319157897_3933095115 3933095115_34157905 34157905_30220444 30220444_3345188400 3345188400_3933095112 3933095112_767584716 767584716_501027474 501027474_501027471 501027471_3933095114 3933095114_3937111755 3937111755_767582212 767582212_4000075641 4000075641_767661756 767661756_767584894 767584894_2384091375 2384091375_2384091376 2384091376_767587081 767587081_767665017 767665017_3937113664 3937113664_477079436 477079436_477079437 477079437_2096319043 2096319043_233274930 233274930_30945324 30945324_2189377523 2189377523_3419344105 3419344105_4283908116 4283908116_4283908117 4283908117_30287465 30287465_224750232 224750232_3937111753 3937111753_3419339847 3419339847_30945575 30945575_269335260 269335260_2368035914 2368035914_628761345 628761345_2358071077 2358071077_224750388 224750388_224750434 224750434_30220702 30220702_3281073163 3281073163_241807173 241807173_4936948367 4936948367_1713460586 1713460586_2237633849 2237633849_2237633848 2237633848_30220684 30220684_3281070305 3281070305_372998488 372998488_373003030 373003030_372998848 372998848_224738413 224738413_2372885312 2372885312_2372885314 2372885314_223007318 223007318_4283908095 4283908095_30287528 30287528_2081997803 2081997803_3987365913 3987365913_248969195 248969195_1889062696 1889062696_30220445 30220445_2189358937 2189358937_746428618 746428618_4061053437 4061053437_4061053440 4061053440_4061053446 4061053446_4061053447 4061053447_4061053449 4061053449_4061053450 4061053450_4061053453 4061053453_4061053456 4061053456_129953605 129953605_248746687 248746687_224763532 224763532_355818907 355818907_4061053475 4061053475_4061053484 4061053484_30404320 30404320_4110787845 4110787845_355818836 355818836_1404234340 1404234340_129953571 129953571_355818807 355818807_129952492 129952492_224765801 224765801_30947901 30947901_2237521759 2237521759_250480666 250480666_250480669 250480669_30948020 30948020_250480655 250480655_705744124 705744124_30947983 30947983_250480649 250480649_30947985 30947985_250480641 250480641_250480609 250480609_250479836 250479836_2013560660 2013560660_30948116 30948116_30948162 30948162_277362770 277362770_4283908179 4283908179_723976949 723976949_277362804 277362804_3394892452 3394892452_723980902 723980902_277362806 277362806_277362807 277362807_723980903 723980903_277362808 277362808_2978801847 2978801847_2978801846 2978801846_2978801848 2978801848_2978801845 2978801845_2241696401 2241696401_1546958634 1546958634_1546958636 1546958636_277362811 277362811_2241696406 2241696406_4283908187 4283908187_277362814 277362814_30221048 30221048_214117760 214117760_1533481705 1533481705_214099039 214099039_3498527026 3498527026_4211625372 4211625372_214118052 214118052_2241798888 2241798888_4169720796 4169720796_4169720797 4169720797_2241788901 2241788901_4169720800 4169720800_4169720801 4169720801_30385374 30385374_4169720798 4169720798_2241788904 2241788904_214131786 214131786_304700589 304700589_214131724 214131724_3205511505 3205511505_3205511506 3205511506_304700483 304700483_1522566181 1522566181_1522834368 1522834368_1522834478 1522834478_1522834448 1522834448_1522834342 1522834342_1522834451 1522834451_1522834383 1522834383_1522834323 1522834323_1522566317 1522566317_1522834359 1522834359_1522566268 1522566268_1522839079 1522839079_1522977019 1522977019_309978787 309978787_4169720259 4169720259_29936553 29936553_1487227988 1487227988_4169720288 4169720288_1487228031 1487228031_1487228148 1487228148_1487228036 1487228036_1487228003 1487228003_1487228084 1487228084_1487228141 1487228141_3224362684 3224362684_304701503 304701503_304701495 304701495_309969259 309969259_309969348 309969348_3071691488 3071691488_304701810 304701810_4802879112 4802879112_2080740194 2080740194_304701852 304701852_309970344 309970344_850722885 850722885_4000710669 4000710669_21643772 21643772_309971000 309971000_304704429 304704429_309972112 309972112_309972045 309972045_2080740191 2080740191_304704440 304704440_2938998243 2938998243_304704443 304704443_2245577416 2245577416_309972751 309972751_304704449 304704449_29960342 29960342_309975063 309975063_2245577415 2245577415_304704681 304704681_309975083 309975083_309975281 309975281_2815396505 2815396505_304705215 304705215_2245577418 2245577418_2815396513 2815396513_309975117 309975117_304705227 304705227_304705278 304705278_2245788930 2245788930_319628837 319628837_311901363 311901363_311901462 311901462_311901379 311901379_313139919 313139919_2425453607 2425453607_2425453618 2425453618_313139943 313139943_1928284050 1928284050_313139944 313139944_1928284033 1928284033_313139945 313139945_313139946 313139946_673083815 673083815_313139836 313139836_313140298 313140298_313139816 313139816_313254077 313254077_313139805 313139805_313254109 313254109_313139789 313139789_1928315586 1928315586_1928315552 1928315552_1928315573 1928315573_1928315558 1928315558_1928315555 1928315555_1928315553 1928315553_1928315589 1928315589_1928315579 1928315579_1928315592 1928315592_1928315581 1928315581_313139758 313139758_313254240 313254240_313441737 313441737_313440691 313440691_313441110 313441110_1928298965 " id="route0" /><flow begin="0" departPos="0" id="0" number="100" period="1" route="route0" type="Car13" /><flow begin="0" departPos="0" id="1" number="100" period="1" route="route0" type="Car18" /><flow begin="0" departPos="0" id="2" number="100" period="1" route="route0" type="Car4" /><flow begin="0" departPos="0" id="3" number="100" period="1" route="route0" type="Car1" /><flow begin="0" departPos="0" id="4" number="100" period="1" route="route0" type="Car14" /><flow begin="0" departPos="0" id="5" number="100" period="1" route="route0" type="Car7" /><flow begin="0" departPos="0" id="6" number="100" period="1" route="route0" type="Car14" /><flow begin="0" departPos="0" id="7" number="100" period="1" route="route0" type="Car16" /><flow begin="0" departPos="0" id="8" number="100" period="1" route="route0" type="Car12" /><flow begin="0" departPos="0" id="9" number="100" period="1" route="route0" type="Car11" /><flow begin="0" departPos="0" id="10" number="100" period="1" route="route0" type="Car0" /><flow begin="0" departPos="0" id="11" number="100" period="1" route="route0" type="Car11" /><flow begin="0" departPos="0" id="12" number="100" period="1" route="route0" type="Car17" /><flow begin="0" departPos="0" id="13" number="100" period="1" route="route0" type="Car5" /><flow begin="0" departPos="0" id="14" number="100" period="1" route="route0" type="Car9" /><flow begin="0" departPos="0" id="15" number="100" period="1" route="route0" type="Car7" /><flow begin="0" departPos="0" id="16" number="100" period="1" route="route0" type="Car7" /><flow begin="0" departPos="0" id="17" number="100" period="1" route="route0" type="Car9" /><flow begin="0" departPos="0" id="18" number="100" period="1" route="route0" type="Car8" /><flow begin="0" departPos="0" id="19" number="100" period="1" route="route0" type="Car15" /><flow begin="0" departPos="0" id="back_flow" number="5000" period="1" route="route0" type="back_car" /></routes>