<configuration>
    <input>
        <net-file value="melbourne_sh_50.net.xml"/>
        <route-files value="melbourne_sh_50.rou.xml"/>
    </input>
    <time>
        <begin value="0"/>
        <end value="20000"/>
    </time>
</configuration>