<?xml version="1.0" encoding="UTF-8"?>

<!-- generated on 04/25/18 12:03:00 by SUMO netconvert Version 0.32.0
<?xml version="1.0" encoding="UTF-8"?>

<configuration xmlns:xsi="http://www.w3.org/2001/XMLSchema-instance" xsi:noNamespaceSchemaLocation="http://sumo.dlr.de/xsd/netconvertConfiguration.xsd">

    <input>
        <node-files value="melbourne_sh_100.nod.xml"/>
        <edge-files value="melbourne_sh_100.edg.xml"/>
        <type-files value="melbourne.typ.xml"/>
    </input>

    <output>
        <output-file value="melbourne_sh_100.net.xml"/>
    </output>

    <projection>
        <proj.utm value="true"/>
    </projection>

</configuration>
-->

<net version="0.27" xmlns:xsi="http://www.w3.org/2001/XMLSchema-instance" xsi:noNamespaceSchemaLocation="http://sumo.dlr.de/xsd/net_file.xsd">

    <location netOffset="-311510.21,4186997.33" convBoundary="0.00,0.00,18964.33,1408.21" origBoundary="144.858764,-37.813132,145.074263,-37.798844" projParameter="+proj=utm +zone=55 +ellps=WGS84 +datum=WGS84 +units=m +no_defs"/>

    <type id="a" priority="1" numLanes="3" speed="120.00"/>

    <edge id=":1055841931_0" function="internal">
        <lane id=":1055841931_0_0" index="0" speed="13.90" length="0.15" shape="3889.51,1284.13 3889.55,1284.13 3889.58,1284.13 3889.61,1284.12 3889.66,1284.12"/>
    </edge>
    <edge id=":1055841933_0" function="internal">
        <lane id=":1055841933_0_0" index="0" speed="13.90" length="0.40" shape="3861.59,1284.05 3861.71,1284.04 3861.79,1284.04 3861.87,1284.04 3861.98,1284.05"/>
    </edge>
    <edge id=":1055879458_0" function="internal">
        <lane id=":1055879458_0_0" index="0" speed="13.90" length="0.30" shape="3892.08,1283.81 3892.38,1283.77"/>
    </edge>
    <edge id=":1055879468_0" function="internal">
        <lane id=":1055879468_0_0" index="0" speed="13.90" length="0.10" shape="3908.46,1281.80 3908.46,1281.80"/>
    </edge>
    <edge id=":1055879518_0" function="internal">
        <lane id=":1055879518_0_0" index="0" speed="13.90" length="0.30" shape="3919.43,1280.48 3919.73,1280.44"/>
    </edge>
    <edge id=":1112411372_0" function="internal">
        <lane id=":1112411372_0_0" index="0" speed="13.90" length="0.30" shape="6206.62,1012.10 6206.91,1012.06"/>
    </edge>
    <edge id=":1277943031_0" function="internal">
        <lane id=":1277943031_0_0" index="0" speed="13.90" length="0.10" shape="3143.25,1372.20 3143.25,1372.20"/>
    </edge>
    <edge id=":1277943037_0" function="internal">
        <lane id=":1277943037_0_0" index="0" speed="13.90" length="0.30" shape="3695.54,1303.97 3695.83,1303.94"/>
    </edge>
    <edge id=":1277943040_0" function="internal">
        <lane id=":1277943040_0_0" index="0" speed="13.90" length="0.30" shape="3720.52,1301.01 3720.82,1300.98"/>
    </edge>
    <edge id=":1277943048_0" function="internal">
        <lane id=":1277943048_0_0" index="0" speed="13.90" length="0.30" shape="3026.68,1386.98 3026.97,1386.94"/>
    </edge>
    <edge id=":1277943051_0" function="internal">
        <lane id=":1277943051_0_0" index="0" speed="13.90" length="0.10" shape="3127.42,1374.21 3127.42,1374.21"/>
    </edge>
    <edge id=":1277943062_0" function="internal">
        <lane id=":1277943062_0_0" index="0" speed="13.90" length="0.10" shape="3135.52,1373.18 3135.52,1373.18"/>
    </edge>
    <edge id=":1277945597_0" function="internal">
        <lane id=":1277945597_0_0" index="0" speed="13.90" length="0.10" shape="3007.95,1390.29 3007.95,1390.29"/>
    </edge>
    <edge id=":1277945601_0" function="internal">
        <lane id=":1277945601_0_0" index="0" speed="13.90" length="0.13" shape="3001.18,1392.73 3001.30,1392.68"/>
    </edge>
    <edge id=":1277945612_0" function="internal">
        <lane id=":1277945612_0_0" index="0" speed="13.90" length="0.30" shape="2901.35,1389.32 2901.60,1389.49"/>
    </edge>
    <edge id=":1277945616_0" function="internal">
        <lane id=":1277945616_0_0" index="0" speed="13.90" length="0.21" shape="2993.97,1395.97 2994.03,1395.96 2994.07,1395.94 2994.10,1395.93 2994.16,1395.90"/>
    </edge>
    <edge id=":1277945624_0" function="internal">
        <lane id=":1277945624_0_0" index="0" speed="13.90" length="0.36" shape="3011.99,1388.84 3012.09,1388.80 3012.16,1388.78 3012.23,1388.77 3012.33,1388.75"/>
    </edge>
    <edge id=":1277945625_0" function="internal">
        <lane id=":1277945625_0_0" index="0" speed="13.90" length="0.27" shape="2970.60,1401.83 2970.86,1401.80"/>
    </edge>
    <edge id=":1277945626_0" function="internal">
        <lane id=":1277945626_0_0" index="0" speed="13.90" length="0.10" shape="2983.70,1399.08 2983.80,1399.06"/>
    </edge>
    <edge id=":1277945635_0" function="internal">
        <lane id=":1277945635_0_0" index="0" speed="13.90" length="0.29" shape="2898.08,1387.12 2898.32,1387.29"/>
    </edge>
    <edge id=":1277945666_0" function="internal">
        <lane id=":1277945666_0_0" index="0" speed="13.90" length="0.14" shape="2974.30,1401.30 2974.34,1401.30 2974.37,1401.29 2974.40,1401.29 2974.44,1401.28"/>
    </edge>
    <edge id=":1277945674_0" function="internal">
        <lane id=":1277945674_0_0" index="0" speed="13.90" length="0.29" shape="2955.67,1403.59 2955.96,1403.56"/>
    </edge>
    <edge id=":1277946726_0" function="internal">
        <lane id=":1277946726_0_0" index="0" speed="13.90" length="0.10" shape="2911.79,1396.37 2911.79,1396.37"/>
    </edge>
    <edge id=":1277946732_0" function="internal">
        <lane id=":1277946732_0_0" index="0" speed="13.90" length="0.27" shape="2854.32,1356.96 2854.54,1357.12"/>
    </edge>
    <edge id=":1277946734_0" function="internal">
        <lane id=":1277946734_0_0" index="0" speed="13.90" length="1.13" shape="2926.33,1406.18 2926.61,1406.36 2926.82,1406.45 2927.05,1406.47 2927.38,1406.45"/>
    </edge>
    <edge id=":1277984546_0" function="internal">
        <lane id=":1277984546_0_0" index="0" speed="13.90" length="0.30" shape="3328.93,1348.66 3329.22,1348.62"/>
    </edge>
    <edge id=":1277984552_0" function="internal">
        <lane id=":1277984552_0_0" index="0" speed="13.90" length="0.30" shape="3573.70,1318.25 3574.00,1318.22"/>
    </edge>
    <edge id=":1277984610_0" function="internal">
        <lane id=":1277984610_0_0" index="0" speed="13.90" length="0.30" shape="3473.45,1330.41 3473.75,1330.38"/>
    </edge>
    <edge id=":1277984621_0" function="internal">
        <lane id=":1277984621_0_0" index="0" speed="13.90" length="0.10" shape="3347.45,1346.20 3347.45,1346.20"/>
    </edge>
    <edge id=":1277984635_0" function="internal">
        <lane id=":1277984635_0_0" index="0" speed="13.90" length="0.10" shape="3376.01,1342.41 3376.01,1342.41"/>
    </edge>
    <edge id=":1277984655_0" function="internal">
        <lane id=":1277984655_0_0" index="0" speed="13.90" length="0.30" shape="3701.51,1303.26 3701.81,1303.23"/>
    </edge>
    <edge id=":1277984670_0" function="internal">
        <lane id=":1277984670_0_0" index="0" speed="13.90" length="0.30" shape="3457.47,1332.35 3457.76,1332.31"/>
    </edge>
    <edge id=":1277984684_0" function="internal">
        <lane id=":1277984684_0_0" index="0" speed="13.90" length="0.29" shape="3565.15,1319.18 3565.43,1319.15"/>
    </edge>
    <edge id=":1277984706_0" function="internal">
        <lane id=":1277984706_0_0" index="0" speed="13.90" length="0.30" shape="3465.78,1331.34 3466.08,1331.30"/>
    </edge>
    <edge id=":1277984720_0" function="internal">
        <lane id=":1277984720_0_0" index="0" speed="13.90" length="0.29" shape="3392.83,1340.18 3393.13,1340.14"/>
    </edge>
    <edge id=":1279001028_0" function="internal">
        <lane id=":1279001028_0_0" index="0" speed="13.90" length="0.10" shape="3234.00,1360.70 3234.00,1360.70"/>
    </edge>
    <edge id=":129952492_0" function="internal">
        <lane id=":129952492_0_0" index="0" speed="13.90" length="0.28" shape="12285.66,338.40 12285.94,338.37"/>
    </edge>
    <edge id=":129953571_0" function="internal">
        <lane id=":129953571_0_0" index="0" speed="13.90" length="0.30" shape="12181.11,349.97 12181.41,349.93"/>
    </edge>
    <edge id=":129953605_0" function="internal">
        <lane id=":129953605_0_0" index="0" speed="13.90" length="0.19" shape="11889.44,382.67 11889.62,382.65"/>
    </edge>
    <edge id=":130038127_0" function="internal">
        <lane id=":130038127_0_0" index="0" speed="13.90" length="0.13" shape="7305.65,781.78 7305.78,781.81"/>
    </edge>
    <edge id=":130038128_0" function="internal">
        <lane id=":130038128_0_0" index="0" speed="13.90" length="0.11" shape="7318.37,783.71 7318.48,783.72"/>
    </edge>
    <edge id=":130038129_0" function="internal">
        <lane id=":130038129_0_0" index="0" speed="13.90" length="0.18" shape="7341.91,784.82 7341.96,784.82 7342.00,784.82 7342.03,784.82 7342.09,784.81"/>
    </edge>
    <edge id=":130038130_0" function="internal">
        <lane id=":130038130_0_0" index="0" speed="13.90" length="0.25" shape="7353.24,783.69 7353.48,783.66"/>
    </edge>
    <edge id=":130038292_0" function="internal">
        <lane id=":130038292_0_0" index="0" speed="13.90" length="0.22" shape="7090.95,710.15 7091.02,710.13 7091.06,710.13 7091.11,710.12 7091.17,710.12"/>
    </edge>
    <edge id=":130038293_0" function="internal">
        <lane id=":130038293_0_0" index="0" speed="13.90" length="0.19" shape="7110.11,709.01 7110.16,709.01 7110.20,709.01 7110.24,709.01 7110.30,709.02"/>
    </edge>
    <edge id=":130038294_0" function="internal">
        <lane id=":130038294_0_0" index="0" speed="13.90" length="0.16" shape="7127.29,710.09 7127.34,710.09 7127.37,710.10 7127.40,710.10 7127.45,710.11"/>
    </edge>
    <edge id=":130038295_0" function="internal">
        <lane id=":130038295_0_0" index="0" speed="13.90" length="0.15" shape="7142.29,712.56 7142.33,712.56 7142.36,712.57 7142.39,712.58 7142.43,712.59"/>
    </edge>
    <edge id=":130038296_0" function="internal">
        <lane id=":130038296_0_0" index="0" speed="13.90" length="0.19" shape="7160.52,717.34 7160.58,717.35 7160.61,717.36 7160.65,717.38 7160.70,717.40"/>
    </edge>
    <edge id=":130038330_0" function="internal">
        <lane id=":130038330_0_0" index="0" speed="13.90" length="0.12" shape="7176.87,723.75 7176.99,723.80"/>
    </edge>
    <edge id=":130038331_0" function="internal">
        <lane id=":130038331_0_0" index="0" speed="13.90" length="0.10" shape="7185.63,728.00 7185.63,728.00"/>
    </edge>
    <edge id=":130039046_0" function="internal">
        <lane id=":130039046_0_0" index="0" speed="13.90" length="0.26" shape="6975.23,756.47 6975.47,756.36"/>
    </edge>
    <edge id=":130039064_0" function="internal">
        <lane id=":130039064_0_0" index="0" speed="13.90" length="0.30" shape="6928.32,775.19 6928.60,775.09"/>
    </edge>
    <edge id=":130040068_0" function="internal">
        <lane id=":130040068_0_0" index="0" speed="13.90" length="0.10" shape="6773.13,832.28 6773.20,832.26"/>
    </edge>
    <edge id=":130042127_0" function="internal">
        <lane id=":130042127_0_0" index="0" speed="13.90" length="0.29" shape="4304.87,1234.53 4305.16,1234.49"/>
    </edge>
    <edge id=":130042833_0" function="internal">
        <lane id=":130042833_0_0" index="0" speed="13.90" length="0.28" shape="4624.20,1207.20 4624.48,1207.18"/>
    </edge>
    <edge id=":130042834_0" function="internal">
        <lane id=":130042834_0_0" index="0" speed="13.90" length="0.30" shape="4653.31,1204.21 4653.60,1204.17"/>
    </edge>
    <edge id=":130042835_0" function="internal">
        <lane id=":130042835_0_0" index="0" speed="13.90" length="0.30" shape="4674.40,1201.36 4674.70,1201.32"/>
    </edge>
    <edge id=":130042836_0" function="internal">
        <lane id=":130042836_0_0" index="0" speed="13.90" length="0.15" shape="4695.26,1198.51 4695.31,1198.50 4695.34,1198.50 4695.37,1198.49 4695.41,1198.48"/>
    </edge>
    <edge id=":130042837_0" function="internal">
        <lane id=":130042837_0_0" index="0" speed="13.90" length="0.24" shape="4715.45,1193.85 4715.68,1193.80"/>
    </edge>
    <edge id=":130042838_0" function="internal">
        <lane id=":130042838_0_0" index="0" speed="13.90" length="0.10" shape="4735.53,1188.45 4735.59,1188.44"/>
    </edge>
    <edge id=":130042839_0" function="internal">
        <lane id=":130042839_0_0" index="0" speed="13.90" length="0.10" shape="4766.89,1181.35 4766.95,1181.34"/>
    </edge>
    <edge id=":130042840_0" function="internal">
        <lane id=":130042840_0_0" index="0" speed="13.90" length="0.10" shape="4796.96,1175.57 4797.04,1175.56"/>
    </edge>
    <edge id=":130042841_0" function="internal">
        <lane id=":130042841_0_0" index="0" speed="13.90" length="0.29" shape="4820.40,1172.34 4820.69,1172.30"/>
    </edge>
    <edge id=":130042842_0" function="internal">
        <lane id=":130042842_0_0" index="0" speed="13.90" length="0.29" shape="4868.96,1165.14 4869.24,1165.10"/>
    </edge>
    <edge id=":130042844_0" function="internal">
        <lane id=":130042844_0_0" index="0" speed="13.90" length="0.29" shape="4945.58,1156.29 4945.86,1156.26"/>
    </edge>
    <edge id=":130042845_0" function="internal">
        <lane id=":130042845_0_0" index="0" speed="13.90" length="0.29" shape="4989.54,1151.26 4989.83,1151.23"/>
    </edge>
    <edge id=":130042847_0" function="internal">
        <lane id=":130042847_0_0" index="0" speed="13.90" length="0.10" shape="5071.49,1141.78 5071.58,1141.77"/>
    </edge>
    <edge id=":130042848_0" function="internal">
        <lane id=":130042848_0_0" index="0" speed="13.90" length="0.26" shape="5124.51,1136.83 5124.76,1136.80"/>
    </edge>
    <edge id=":130042849_0" function="internal">
        <lane id=":130042849_0_0" index="0" speed="13.90" length="0.29" shape="5175.23,1130.55 5175.52,1130.52"/>
    </edge>
    <edge id=":130042850_0" function="internal">
        <lane id=":130042850_0_0" index="0" speed="13.90" length="0.28" shape="5232.08,1124.29 5232.36,1124.26"/>
    </edge>
    <edge id=":130042851_0" function="internal">
        <lane id=":130042851_0_0" index="0" speed="13.90" length="0.29" shape="5281.36,1117.87 5281.64,1117.83"/>
    </edge>
    <edge id=":130042852_0" function="internal">
        <lane id=":130042852_0_0" index="0" speed="13.90" length="0.29" shape="5340.74,1111.13 5341.03,1111.09"/>
    </edge>
    <edge id=":130042853_0" function="internal">
        <lane id=":130042853_0_0" index="0" speed="13.90" length="0.28" shape="5392.05,1104.51 5392.33,1104.48"/>
    </edge>
    <edge id=":130042854_0" function="internal">
        <lane id=":130042854_0_0" index="0" speed="13.90" length="0.28" shape="5432.25,1100.13 5432.53,1100.11"/>
    </edge>
    <edge id=":130042855_0" function="internal">
        <lane id=":130042855_0_0" index="0" speed="13.90" length="0.29" shape="5487.55,1094.58 5487.83,1094.55"/>
    </edge>
    <edge id=":130042856_0" function="internal">
        <lane id=":130042856_0_0" index="0" speed="13.90" length="0.27" shape="5559.59,1085.65 5559.86,1085.62"/>
    </edge>
    <edge id=":130042857_0" function="internal">
        <lane id=":130042857_0_0" index="0" speed="13.90" length="0.28" shape="5633.09,1078.25 5633.37,1078.21"/>
    </edge>
    <edge id=":130042858_0" function="internal">
        <lane id=":130042858_0_0" index="0" speed="13.90" length="0.10" shape="5702.20,1069.97 5702.20,1069.97"/>
    </edge>
    <edge id=":130042859_0" function="internal">
        <lane id=":130042859_0_0" index="0" speed="13.90" length="0.26" shape="5744.55,1064.91 5744.81,1064.89"/>
    </edge>
    <edge id=":130042860_0" function="internal">
        <lane id=":130042860_0_0" index="0" speed="13.90" length="0.27" shape="5810.46,1058.85 5810.73,1058.82"/>
    </edge>
    <edge id=":130042861_0" function="internal">
        <lane id=":130042861_0_0" index="0" speed="13.90" length="0.29" shape="5864.24,1052.52 5864.53,1052.49"/>
    </edge>
    <edge id=":130042862_0" function="internal">
        <lane id=":130042862_0_0" index="0" speed="13.90" length="0.28" shape="5922.64,1044.78 5922.92,1044.75"/>
    </edge>
    <edge id=":130042863_0" function="internal">
        <lane id=":130042863_0_0" index="0" speed="13.90" length="0.27" shape="5984.03,1037.86 5984.31,1037.83"/>
    </edge>
    <edge id=":130042864_0" function="internal">
        <lane id=":130042864_0_0" index="0" speed="13.90" length="0.28" shape="6028.63,1031.81 6028.91,1031.78"/>
    </edge>
    <edge id=":130042865_0" function="internal">
        <lane id=":130042865_0_0" index="0" speed="13.90" length="0.30" shape="6068.77,1027.24 6069.07,1027.20"/>
    </edge>
    <edge id=":130042866_0" function="internal">
        <lane id=":130042866_0_0" index="0" speed="13.90" length="0.28" shape="6114.43,1022.11 6114.71,1022.08"/>
    </edge>
    <edge id=":130042868_0" function="internal">
        <lane id=":130042868_0_0" index="0" speed="13.90" length="0.30" shape="6227.04,1009.29 6227.34,1009.24"/>
    </edge>
    <edge id=":130042869_0" function="internal">
        <lane id=":130042869_0_0" index="0" speed="13.90" length="0.25" shape="6293.80,998.99 6294.05,998.94"/>
    </edge>
    <edge id=":130042871_0" function="internal">
        <lane id=":130042871_0_0" index="0" speed="13.90" length="0.21" shape="6321.35,993.42 6321.55,993.37"/>
    </edge>
    <edge id=":130042872_0" function="internal">
        <lane id=":130042872_0_0" index="0" speed="13.90" length="0.10" shape="6354.77,985.14 6354.86,985.12"/>
    </edge>
    <edge id=":130042873_0" function="internal">
        <lane id=":130042873_0_0" index="0" speed="13.90" length="0.30" shape="6388.13,974.63 6388.41,974.54"/>
    </edge>
    <edge id=":130042874_0" function="internal">
        <lane id=":130042874_0_0" index="0" speed="13.90" length="0.24" shape="6423.91,963.38 6424.14,963.30"/>
    </edge>
    <edge id=":130042875_0" function="internal">
        <lane id=":130042875_0_0" index="0" speed="13.90" length="0.10" shape="6490.28,939.24 6490.33,939.22"/>
    </edge>
    <edge id=":130042876_0" function="internal">
        <lane id=":130042876_0_0" index="0" speed="13.90" length="0.11" shape="6515.37,930.77 6515.47,930.74"/>
    </edge>
    <edge id=":130042877_0" function="internal">
        <lane id=":130042877_0_0" index="0" speed="13.90" length="0.10" shape="6548.18,917.19 6548.25,917.16"/>
    </edge>
    <edge id=":130042878_0" function="internal">
        <lane id=":130042878_0_0" index="0" speed="13.90" length="0.30" shape="6610.61,893.76 6610.89,893.66"/>
    </edge>
    <edge id=":130042935_0" function="internal">
        <lane id=":130042935_0_0" index="0" speed="13.90" length="0.30" shape="4926.01,1158.24 4926.30,1158.21"/>
    </edge>
    <edge id=":130043040_0" function="internal">
        <lane id=":130043040_0_0" index="0" speed="13.90" length="0.26" shape="6183.94,1015.29 6184.19,1015.26"/>
    </edge>
    <edge id=":130043112_0" function="internal">
        <lane id=":130043112_0_0" index="0" speed="13.90" length="0.28" shape="6452.05,953.49 6452.32,953.39"/>
    </edge>
    <edge id=":1404234340_0" function="internal">
        <lane id=":1404234340_0_0" index="0" speed="13.90" length="0.29" shape="12178.60,350.28 12178.89,350.24"/>
    </edge>
    <edge id=":1487227988_0" function="internal">
        <lane id=":1487227988_0_0" index="0" speed="13.90" length="0.27" shape="15121.12,779.94 15121.37,780.02"/>
    </edge>
    <edge id=":1487228003_0" function="internal">
        <lane id=":1487228003_0_0" index="0" speed="13.90" length="0.25" shape="15139.09,783.32 15139.16,783.32 15139.22,783.32 15139.27,783.32 15139.34,783.31"/>
    </edge>
    <edge id=":1487228031_0" function="internal">
        <lane id=":1487228031_0_0" index="0" speed="13.90" length="0.16" shape="15124.98,781.25 15125.02,781.26 15125.05,781.27 15125.09,781.28 15125.13,781.29"/>
    </edge>
    <edge id=":1487228036_0" function="internal">
        <lane id=":1487228036_0_0" index="0" speed="13.90" length="0.20" shape="15134.52,783.15 15134.58,783.16 15134.62,783.16 15134.66,783.17 15134.72,783.17"/>
    </edge>
    <edge id=":1487228084_0" function="internal">
        <lane id=":1487228084_0_0" index="0" speed="13.90" length="0.30" shape="15153.80,781.51 15154.10,781.47"/>
    </edge>
    <edge id=":1487228141_0" function="internal">
        <lane id=":1487228141_0_0" index="0" speed="13.90" length="0.10" shape="15173.33,779.09 15173.33,779.09"/>
    </edge>
    <edge id=":1487228148_0" function="internal">
        <lane id=":1487228148_0_0" index="0" speed="13.90" length="0.10" shape="15129.76,782.36 15129.86,782.38"/>
    </edge>
    <edge id=":1492410147_0" function="internal">
        <lane id=":1492410147_0_0" index="0" speed="13.90" length="0.27" shape="9166.94,684.96 9167.21,684.93"/>
    </edge>
    <edge id=":1492410163_0" function="internal">
        <lane id=":1492410163_0_0" index="0" speed="13.90" length="0.30" shape="9159.74,685.74 9160.04,685.71"/>
    </edge>
    <edge id=":1492410198_0" function="internal">
        <lane id=":1492410198_0_0" index="0" speed="13.90" length="0.10" shape="9156.74,686.07 9156.74,686.07"/>
    </edge>
    <edge id=":1492410214_0" function="internal">
        <lane id=":1492410214_0_0" index="0" speed="13.90" length="0.30" shape="9151.47,686.64 9151.76,686.61"/>
    </edge>
    <edge id=":1522566181_0" function="internal">
        <lane id=":1522566181_0_0" index="0" speed="13.90" length="0.29" shape="14952.33,691.03 14952.50,691.26"/>
    </edge>
    <edge id=":1522566268_0" function="internal">
        <lane id=":1522566268_0_0" index="0" speed="13.90" length="0.10" shape="15015.14,734.68 15015.06,734.64"/>
    </edge>
    <edge id=":1522566317_0" function="internal">
        <lane id=":1522566317_0_0" index="0" speed="13.90" length="0.29" shape="14989.07,722.23 14989.14,722.28 14989.19,722.31 14989.24,722.34 14989.32,722.37"/>
    </edge>
    <edge id=":1522834323_0" function="internal">
        <lane id=":1522834323_0_0" index="0" speed="13.90" length="0.27" shape="14981.67,716.89 14981.89,717.04"/>
    </edge>
    <edge id=":1522834342_0" function="internal">
        <lane id=":1522834342_0_0" index="0" speed="13.90" length="0.15" shape="14962.87,703.60 14962.90,703.63 14962.92,703.65 14962.95,703.67 14962.98,703.70"/>
    </edge>
    <edge id=":1522834359_0" function="internal">
        <lane id=":1522834359_0_0" index="0" speed="13.90" length="0.10" shape="14990.47,722.92 14990.47,722.92"/>
    </edge>
    <edge id=":1522834368_0" function="internal">
        <lane id=":1522834368_0_0" index="0" speed="13.90" length="0.10" shape="14954.25,693.56 14954.25,693.56"/>
    </edge>
    <edge id=":1522834383_0" function="internal">
        <lane id=":1522834383_0_0" index="0" speed="13.90" length="0.30" shape="14972.00,710.26 14972.25,710.43"/>
    </edge>
    <edge id=":1522834448_0" function="internal">
        <lane id=":1522834448_0_0" index="0" speed="13.90" length="0.12" shape="14960.53,701.28 14960.61,701.36"/>
    </edge>
    <edge id=":1522834451_0" function="internal">
        <lane id=":1522834451_0_0" index="0" speed="13.90" length="0.12" shape="14965.12,705.45 14965.22,705.52"/>
    </edge>
    <edge id=":1522834478_0" function="internal">
        <lane id=":1522834478_0_0" index="0" speed="13.90" length="0.11" shape="14957.27,697.53 14957.34,697.62"/>
    </edge>
    <edge id=":1522839079_0" function="internal">
        <lane id=":1522839079_0_0" index="0" speed="13.90" length="0.29" shape="15047.37,748.10 15047.63,748.21"/>
    </edge>
    <edge id=":1522977019_0" function="internal">
        <lane id=":1522977019_0_0" index="0" speed="13.90" length="0.24" shape="15060.18,753.65 15060.40,753.74"/>
    </edge>
    <edge id=":1533481705_0" function="internal">
        <lane id=":1533481705_0_0" index="0" speed="13.90" length="0.10" shape="14131.82,123.47 14131.82,123.47"/>
    </edge>
    <edge id=":1546958634_0" function="internal">
        <lane id=":1546958634_0_0" index="0" speed="13.90" length="0.21" shape="13611.78,209.75 13611.99,209.70"/>
    </edge>
    <edge id=":1546958636_0" function="internal">
        <lane id=":1546958636_0_0" index="0" speed="13.90" length="0.21" shape="13628.46,205.77 13628.66,205.72"/>
    </edge>
    <edge id=":1713460586_0" function="internal">
        <lane id=":1713460586_0_0" index="0" speed="13.90" length="0.30" shape="11012.65,474.00 11012.95,473.97"/>
    </edge>
    <edge id=":1725216852_0" function="internal">
        <lane id=":1725216852_0_0" index="0" speed="13.90" length="0.10" shape="8890.40,716.65 8890.40,716.65"/>
    </edge>
    <edge id=":1725216871_0" function="internal">
        <lane id=":1725216871_0_0" index="0" speed="13.90" length="0.30" shape="9297.19,668.51 9297.49,668.48"/>
    </edge>
    <edge id=":1833142699_0" function="internal">
        <lane id=":1833142699_0_0" index="0" speed="13.90" length="0.30" shape="2124.42,841.54 2124.66,841.71"/>
    </edge>
    <edge id=":1833869065_0" function="internal">
        <lane id=":1833869065_0_0" index="0" speed="13.90" length="0.10" shape="178.69,78.03 178.69,78.03"/>
    </edge>
    <edge id=":1833875777_0" function="internal">
        <lane id=":1833875777_0_0" index="0" speed="13.90" length="0.30" shape="6893.86,787.96 6894.14,787.86"/>
    </edge>
    <edge id=":1889062696_0" function="internal">
        <lane id=":1889062696_0_0" index="0" speed="13.90" length="0.30" shape="11672.76,403.72 11673.06,403.68"/>
    </edge>
    <edge id=":1895925155_0" function="internal">
        <lane id=":1895925155_0_0" index="0" speed="13.90" length="0.30" shape="8838.35,722.83 8838.64,722.80"/>
    </edge>
    <edge id=":1900213541_0" function="internal">
        <lane id=":1900213541_0_0" index="0" speed="13.90" length="0.28" shape="9021.96,701.06 9022.24,701.03"/>
    </edge>
    <edge id=":1928284033_0" function="internal">
        <lane id=":1928284033_0_0" index="0" speed="13.90" length="0.32" shape="18223.82,749.40 18223.89,749.47 18223.94,749.51 18223.98,749.57 18224.03,749.64"/>
    </edge>
    <edge id=":1928284050_0" function="internal">
        <lane id=":1928284050_0_0" index="0" speed="13.90" length="0.29" shape="18185.62,704.99 18185.64,705.07 18185.66,705.13 18185.69,705.18 18185.73,705.26"/>
    </edge>
    <edge id=":1928315552_0" function="internal">
        <lane id=":1928315552_0_0" index="0" speed="13.90" length="0.57" shape="18724.75,724.13 18724.80,724.30 18724.84,724.40 18724.90,724.50 18725.00,724.64"/>
    </edge>
    <edge id=":1928315553_0" function="internal">
        <lane id=":1928315553_0_0" index="0" speed="13.90" length="0.57" shape="18730.83,726.48 18730.99,726.42 18731.10,726.38 18731.20,726.32 18731.34,726.22"/>
    </edge>
    <edge id=":1928315555_0" function="internal">
        <lane id=":1928315555_0_0" index="0" speed="13.90" length="0.60" shape="18729.29,726.83 18729.46,726.84 18729.58,726.84 18729.70,726.81 18729.87,726.76"/>
    </edge>
    <edge id=":1928315558_0" function="internal">
        <lane id=":1928315558_0_0" index="0" speed="13.90" length="0.65" shape="18727.23,726.54 18727.40,726.63 18727.53,726.67 18727.66,726.70 18727.85,726.72"/>
    </edge>
    <edge id=":1928315573_0" function="internal">
        <lane id=":1928315573_0_0" index="0" speed="13.90" length="0.71" shape="18725.70,725.57 18725.83,725.73 18725.93,725.84 18726.05,725.92 18726.24,726.02"/>
    </edge>
    <edge id=":1928315579_0" function="internal">
        <lane id=":1928315579_0_0" index="0" speed="13.90" length="0.52" shape="18733.07,724.57 18733.17,724.45 18733.23,724.36 18733.28,724.27 18733.34,724.12"/>
    </edge>
    <edge id=":1928315581_0" function="internal">
        <lane id=":1928315581_0_0" index="0" speed="13.90" length="2.25" shape="18733.90,721.05 18734.01,720.45 18734.28,720.00 18734.70,719.70 18735.29,719.54"/>
    </edge>
    <edge id=":1928315586_0" function="internal">
        <lane id=":1928315586_0_0" index="0" speed="13.90" length="2.28" shape="18722.47,721.19 18723.08,721.20 18723.58,721.39 18723.95,721.76 18724.20,722.32"/>
    </edge>
    <edge id=":1928315589_0" function="internal">
        <lane id=":1928315589_0_0" index="0" speed="13.90" length="0.35" shape="18732.09,725.65 18732.18,725.59 18732.23,725.54 18732.28,725.49 18732.35,725.41"/>
    </edge>
    <edge id=":1928315592_0" function="internal">
        <lane id=":1928315592_0_0" index="0" speed="13.90" length="0.54" shape="18733.70,723.22 18733.76,723.07 18733.79,722.97 18733.81,722.86 18733.82,722.70"/>
    </edge>
    <edge id=":1985549822_0" function="internal">
        <lane id=":1985549822_0_0" index="0" speed="13.90" length="0.30" shape="9413.90,654.58 9414.20,654.55"/>
    </edge>
    <edge id=":1985551133_0" function="internal">
        <lane id=":1985551133_0_0" index="0" speed="13.90" length="0.30" shape="9427.17,653.01 9427.47,652.97"/>
    </edge>
    <edge id=":2013560660_0" function="internal">
        <lane id=":2013560660_0_0" index="0" speed="13.90" length="0.10" shape="13061.49,257.77 13061.49,257.77"/>
    </edge>
    <edge id=":202473725_0" function="internal">
        <lane id=":202473725_0_0" index="0" speed="13.90" length="0.28" shape="6560.35,912.86 6560.61,912.76"/>
    </edge>
    <edge id=":202519507_0" function="internal">
        <lane id=":202519507_0_0" index="0" speed="13.90" length="0.28" shape="5453.52,1098.23 5453.80,1098.20"/>
    </edge>
    <edge id=":202520404_0" function="internal">
        <lane id=":202520404_0_0" index="0" speed="13.90" length="0.30" shape="6088.51,1025.01 6088.81,1024.98"/>
    </edge>
    <edge id=":202661082_0" function="internal">
        <lane id=":202661082_0_0" index="0" speed="13.90" length="0.19" shape="5045.69,1145.61 5045.88,1145.59"/>
    </edge>
    <edge id=":2080740191_0" function="internal">
        <lane id=":2080740191_0_0" index="0" speed="13.90" length="0.30" shape="16168.94,657.13 16169.23,657.10"/>
    </edge>
    <edge id=":2080740194_0" function="internal">