<nodes><node id="5546311686" x="145.013087" y="-37.8043532" /><node id="227770375" x="144.9847551" y="-37.8007723" /><node id="4000710669" x="145.038027" y="-37.807692" /><node id="767819790" x="144.9733521" y="-37.8031424" /><node id="767819792" x="144.9729887" y="-37.8030036" /><node id="767819793" x="144.9726252" y="-37.8028203" /><node id="227770398" x="144.9849079" y="-37.7999137" /><node id="850722885" x="145.0379324" y="-37.8076811" /><node id="4288151624" x="145.0353216" y="-37.807939" /><node id="4288151637" x="145.0300905" y="-37.8070383" /><node id="4288151642" x="145.0437864" y="-37.8083295" /><node id="3783295067" x="144.925097" y="-37.796469" /><node id="266076256" x="144.9935316" y="-37.7957663" /><node id="777781264" x="144.9521732" y="-37.8052207" /><node id="3783295089" x="144.9256462" y="-37.7970582" /><node id="60653699" x="144.9438917" y="-37.813149" /><node id="60653700" x="144.9442898" y="-37.8135071" /><node id="60653701" x="144.9445173" y="-37.8138029" /><node id="767819911" x="144.9732314" y="-37.8029019" /><node id="767819912" x="144.9733266" y="-37.8030301" /><node id="60653707" x="144.9505059" y="-37.8178344" /><node id="60653712" x="144.9505662" y="-37.8179149" /><node id="60096664" x="144.9830828" y="-37.816911" /><node id="3306881184" x="144.9558159" y="-37.8118399" /><node id="60653735" x="144.9432693" y="-37.812786" /><node id="2214002868" x="144.984657" y="-37.7968521" /><node id="2214002870" x="144.9847751" y="-37.7959515" /><node id="2214002871" x="144.9845322" y="-37.7973474" /><node id="2214002872" x="144.984773" y="-37.7961787" /><node id="2214002873" x="144.9848802" y="-37.7953291" /><node id="2214002881" x="144.9849181" y="-37.7953332" /><node id="3783327949" x="144.8928096" y="-37.8051408" /><node id="3783327950" x="144.8910025" y="-37.8052755" /><node id="3783327952" x="144.8943695" y="-37.8053364" /><node id="3783327953" x="144.8954791" y="-37.8054756" /><node id="3783327954" x="144.8965308" y="-37.8056075" /><node id="3783327955" x="144.8916066" y="-37.8056284" /><node id="60096725" x="144.9858463" y="-37.8186998" /><node id="3363089103" x="144.9041163" y="-37.8052914" /><node id="2774434013" x="145.0074344" y="-37.801955" /><node id="306905310" x="144.938994" y="-37.810713" /><node id="367132897" x="144.9738332" y="-37.8092779" /><node id="268533989" x="144.9751816" y="-37.8118185" /><node id="268533990" x="144.97473" y="-37.8117705" /><node id="268533991" x="144.9753622" y="-37.8118383" /><node id="268533994" x="144.9780313" y="-37.8110812" /><node id="373653750" x="144.916164" y="-37.807793" /><node id="202473722" x="144.9336703" y="-37.8035422" /><node id="202473724" x="144.9335502" y="-37.8038135" /><node id="202473725" x="144.9334558" y="-37.8040237" /><node id="373653770" x="144.9158538" y="-37.8077456" /><node id="4717969677" x="144.9002959" y="-37.8118549" /><node id="95518992" x="144.9352675" y="-37.7966218" /><node id="95518993" x="144.9352188" y="-37.7966982" /><node id="60096789" x="144.986234" y="-37.8190949" /><node id="589501828" x="144.957654" y="-37.8201983" /><node id="723812636" x="145.0016057" y="-37.7950159" /><node id="4752173787" x="144.8955674" y="-37.8092653" /><node id="1713460615" x="144.9726577" y="-37.8091861" /><node id="304764297" x="145.0548254" y="-37.8168364" /><node id="767820114" x="144.9731215" y="-37.8027398" /><node id="128876884" x="144.9949952" y="-37.8027541" /><node id="372998488" x="144.986353" y="-37.8090958" /><node id="60096860" x="144.9723467" y="-37.8184945" /><node id="60096861" x="144.969785" y="-37.8185853" /><node id="4815356254" x="144.9672376" y="-37.807375" /><node id="128876909" x="144.9971376" y="-37.8029669" /><node id="5484183939" x="144.8823392" y="-37.8188401" /><node id="591430026" x="144.9641397" y="-37.8183458" /><node id="1801486737" x="144.8825799" y="-37.8043255" /><node id="356477680" x="144.9870536" y="-37.8037537" /><node id="767820210" x="144.9722269" y="-37.8025734" /><node id="1279001028" x="144.8958036" y="-37.7993199" /><node id="4730421707" x="144.9497343" y="-37.8034957" /><node id="4730421708" x="144.9498163" y="-37.8035042" /><node id="1928298965" x="145.0742633" y="-37.8066668" /><node id="723812831" x="145.0007945" y="-37.7951202" /><node id="575570427" x="144.9855656" y="-37.8243287" /><node id="1279001114" x="144.8960428" y="-37.7968841" /><node id="4288151643" x="145.043796" y="-37.8083632" /><node id="3171517001" x="144.9617879" y="-37.8038953" /><node id="2005992020" x="144.9950094" y="-37.8024037" /><node id="575570535" x="144.9868236" y="-37.8244939" /><node id="575570537" x="144.988099" y="-37.8246581" /><node id="575570540" x="144.988456" y="-37.8247008" /><node id="2692573971" x="144.9091382" y="-37.8011571" /><node id="4753916557" x="144.9290341" y="-37.7905357" /><node id="775946936" x="144.958323" y="-37.8041525" /><node id="775946938" x="144.9587151" y="-37.8041927" /><node id="775946939" x="144.9586743" y="-37.8041827" /><node id="775946940" x="144.9586294" y="-37.804197" /><node id="775946941" x="144.9584591" y="-37.8041711" /><node id="372998848" x="144.9876645" y="-37.8092246" /><node id="3161948885" x="144.9574536" y="-37.8092936" /><node id="3161948897" x="144.9556249" y="-37.8083581" /><node id="3161948898" x="144.9556706" y="-37.8085118" /><node id="4544561900" x="144.9729904" y="-37.8112936" /><node id="4544561901" x="144.9729459" y="-37.8113061" /><node id="4544561902" x="144.9730165" y="-37.8112864" /><node id="4544561903" x="144.9730519" y="-37.8112768" /><node id="723976949" x="145.0088923" y="-37.8113217" /><node id="3161948922" x="144.9576682" y="-37.8089395" /><node id="321121067" x="144.8854832" y="-37.8104953" /><node id="233243402" x="144.9847533" y="-37.7961766" /><node id="373653635" x="144.9162572" y="-37.8076845" /><node id="233243431" x="144.9848992" y="-37.7953311" /><node id="540050219" x="144.9774519" y="-37.7986046" /><node id="540050220" x="144.9777536" y="-37.7986382" /><node id="540050221" x="144.9779443" y="-37.7986593" /><node id="1426680628" x="145.0194308" y="-37.8093139" /><node id="390923076" x="144.936728" y="-37.7955675" /><node id="2247951177" x="145.064206" y="-37.7933945" /><node id="2247951179" x="145.0640448" y="-37.7933575" /><node id="2247951187" x="145.064148" y="-37.7930081" /><node id="777775931" x="144.9508189" y="-37.8052483" /><node id="781091686" x="145.0134889" y="-37.8119347" /><node id="547586920" x="144.9875666" y="-37.8132017" /><node id="2631959402" x="144.9064092" y="-37.7950267" /><node id="777825195" x="144.9581406" y="-37.8040517" /><node id="233243550" x="144.9858172" y="-37.7954382" /><node id="472236187" x="144.9661252" y="-37.8019766" /><node id="2291073956" x="144.9686766" y="-37.8080872" /><node id="2291073957" x="144.9688582" y="-37.8081719" /><node id="2291073959" x="144.9677713" y="-37.8083515" /><node id="250774446" x="145.013596" y="-37.8158448" /><node id="250774449" x="145.0089436" y="-37.8160237" /><node id="401507253" x="144.9823921" y="-37.7951528" /><node id="2291073974" x="144.9627945" y="-37.8098005" /><node id="2291073975" x="144.9622759" y="-37.8099505" /><node id="2291073976" x="144.961391" y="-37.8102099" /><node id="2291073977" x="144.9612489" y="-37.8102507" /><node id="250774459" x="145.0124522" y="-37.8165214" /><node id="2291073980" x="144.9607978" y="-37.81038" /><node id="2291073983" x="144.959837" y="-37.8106585" /><node id="2291073984" x="144.9589795" y="-37.8109096" /><node id="571835330" x="144.8729942" y="-37.8137549" /><node id="2291073987" x="144.9590364" y="-37.8110331" /><node id="400753604" x="144.9369713" y="-37.8094146" /><node id="2291073989" x="144.9575123" y="-37.811333" /><node id="2291073990" x="144.9569647" y="-37.8114948" /><node id="2291073991" x="144.9564689" y="-37.8116451" /><node id="2291073992" x="144.9563065" y="-37.8116918" /><node id="400753610" x="144.9369169" y="-37.8095207" /><node id="401507275" x="144.9825574" y="-37.7951689" /><node id="2291073998" x="144.9539886" y="-37.8123602" /><node id="2291073999" x="144.9539446" y="-37.812372" /><node id="5422028280" x="144.9289708" y="-37.7885207" /><node id="571835347" x="144.8770032" y="-37.816207" /><node id="2291074006" x="144.9514986" y="-37.813093" /><node id="571835351" x="144.8730937" y="-37.8137942" /><node id="571835352" x="144.8734571" y="-37.8138621" /><node id="571835353" x="144.8736583" y="-37.8139076" /><node id="571835354" x="144.8737749" y="-37.8139648" /><node id="571835355" x="144.874137" y="-37.8142625" /><node id="571835356" x="144.8743731" y="-37.8143992" /><node id="571835357" x="144.8746748" y="-37.8145507" /><node id="571835358" x="144.8752046" y="-37.8147213" /><node id="2382446757" x="144.9010316" y="-37.7995821" /><node id="304710624" x="145.025564" y="-37.8260956" /><node id="266077158" x="144.9999845" y="-37.7952082" /><node id="1522566120" x="145.029503" y="-37.8065724" /><node id="401507305" x="144.9824815" y="-37.7951835" /><node id="1522566124" x="145.0283619" y="-37.80538" /><node id="273115987" x="144.8909401" y="-37.804031" /><node id="2382446762" x="144.9030942" y="-37.7994629" /><node id="2207974398" x="144.9468366" y="-37.8027244" /><node id="672072703" x="144.8847821" y="-37.8031495" /><node id="304710658" x="145.0308384" y="-37.8266973" /><node id="2207974405" x="144.9482103" y="-37.8028766" /><node id="1522566152" x="145.0287594" y="-37.8072113" /><node id="1985429676" x="144.9875868" y="-37.8001967" /><node id="1522566154" x="145.0295471" y="-37.8065726" /><node id="2209383436" x="144.9582518" y="-37.7945347" /><node id="1522566159" x="145.025819" y="-37.8050905" /><node id="401507350" x="144.983605" y="-37.7951896" /><node id="547587095" x="144.9902428" y="-37.8135038" /><node id="304710685" x="145.0311375" y="-37.8268223" /><node id="1522566177" x="145.0275461" y="-37.8072177" /><node id="1522566181" x="145.0286527" y="-37.8076585" /><node id="304710698" x="145.0314327" y="-37.8250062" /><node id="2340127788" x="144.9502532" y="-37.7991098" /><node id="1522566189" x="145.030128" y="-37.8064868" /><node id="2266563637" x="144.9555284" y="-37.8083178" /><node id="2266563638" x="144.9556761" y="-37.8084311" /><node id="2266563639" x="144.9536876" y="-37.8088633" /><node id="2382446772" x="144.9030023" y="-37.8000105" /><node id="2266563642" x="144.954089" y="-37.8087118" /><node id="2266563643" x="144.9554765" y="-37.8081826" /><node id="2266563648" x="144.9555804" y="-37.8083323" /><node id="2266563649" x="144.9554533" y="-37.8082646" /><node id="2266563651" x="144.9539995" y="-37.8087371" /><node id="1522566214" x="145.0283329" y="-37.8072888" /><node id="2209383495" x="144.9576193" y="-37.7996903" /><node id="2266563657" x="144.9556039" y="-37.8086527" /><node id="2266563661" x="144.9550389" y="-37.808443" /><node id="2266563662" x="144.954759" y="-37.808604" /><node id="2266563663" x="144.9548196" y="-37.8085051" /><node id="2266563665" x="144.9556805" y="-37.8084717" /><node id="3506373724" x="145.0334112" y="-37.8094378" /><node id="1522566240" x="145.0283959" y="-37.8053835" /><node id="1409483878" x="144.8764456" y="-37.8164263" /><node id="222987367" x="144.9880745" y="-37.8067851" /><node id="1522566262" x="145.0280298" y="-37.8072495" /><node id="2209383543" x="144.9575464" y="-37.8004165" /><node id="1522566268" x="145.0293823" y="-37.8072739" /><node id="1522566270" x="145.0258799" y="-37.8051332" /><node id="1522566282" x="145.0290926" y="-37.8065279" /><node id="5221319826" x="144.9760739" y="-37.8183457" /><node id="5221319827" x="144.976571" y="-37.8183062" /><node id="364860953" x="144.980203" y="-37.8017304" /><node id="1522566298" x="145.027659" y="-37.8072238" /><node id="376145063" x="144.976665" y="-37.8090663" /><node id="1522566317" x="145.0290832" y="-37.8073809" /><node id="583194142" x="144.9078488" y="-37.8040725" /><node id="1522566327" x="145.0272213" y="-37.8052454" /><node id="2247591096" x="145.0467282" y="-37.8010258" /><node id="2209383610" x="144.9575006" y="-37.7996797" /><node id="2247591099" x="145.0393531" y="-37.8037698" /><node id="2247591101" x="145.0461477" y="-37.8012578" /><node id="2247591109" x="145.0394002" y="-37.8038341" /><node id="1522566343" x="145.0287559" y="-37.8071348" /><node id="2247591114" x="145.0434204" y="-37.8020859" /><node id="2247591117" x="145.0459901" y="-37.8013141" /><node id="2247591119" x="145.0434115" y="-37.8021753" /><node id="304710870" x="144.9347841" y="-37.8094097" /><node id="304710871" x="144.9355051" y="-37.8095046" /><node id="1522566362" x="145.0300527" y="-37.8069793" /><node id="250479836" x="145.0064662" y="-37.8111341" /><node id="1522566375" x="145.0257738" y="-37.805292" /><node id="1522566380" x="145.0300965" y="-37.8066332" /><node id="1522566382" x="145.0300353" y="-37.8069183" /><node id="250479861" x="145.005857" y="-37.8159705" /><node id="250479864" x="145.0074542" y="-37.8161788" /><node id="2245788924" x="145.0449397" y="-37.8084995" /><node id="2245788925" x="145.0560272" y="-37.8098308" /><node id="2245788930" x="145.057388" y="-37.8099602" /><node id="250479885" x="145.0031212" y="-37.816325" /><node id="777717014" x="144.9559188" y="-37.805561" /><node id="250479896" x="145.0028707" y="-37.8175106" /><node id="571835673" x="144.8747152" y="-37.8145637" /><node id="571835675" x="144.8744779" y="-37.8144519" /><node id="571835677" x="144.8756185" y="-37.8148421" /><node id="2841675040" x="144.9689175" y="-37.8080366" /><node id="2841675043" x="144.96814" y="-37.8082439" /><node id="2841675044" x="144.9681941" y="-37.8082466" /><node id="2841675047" x="144.9664548" y="-37.8087515" /><node id="2841675052" x="144.9658354" y="-37.8089313" /><node id="2841675059" x="144.9639591" y="-37.809476" /><node id="2841675060" x="144.9632669" y="-37.8096656" /><node id="2841675061" x="144.9632948" y="-37.8096688" /><node id="3359255433" x="144.882666" y="-37.803984" /><node id="1725203768" x="144.995205" y="-37.7984701" /><node id="2181268810" x="144.9590339" y="-37.8110279" /><node id="2583201106" x="144.9904037" y="-37.8110699" /><node id="571835731" x="144.8770452" y="-37.8161857" /><node id="571835735" x="144.8771277" y="-37.8163253" /><node id="571835736" x="144.8772323" y="-37.8165976" /><node id="571835737" x="144.8773463" y="-37.8169398" /><node id="571835738" x="144.8774174" y="-37.8171496" /><node id="4681001871" x="144.8918275" y="-37.8128816" /><node id="2181268836" x="144.9662571" y="-37.8089285" /><node id="571835757" x="144.8774692" y="-37.8173149" /><node id="348718456" x="144.8940547" y="-37.8168968" /><node id="3947038080" x="144.9589931" y="-37.8019162" /><node id="4329375111" x="144.9677858" y="-37.8172864" /><node id="5406370714" x="144.9626591" y="-37.7983507" /><node id="1895925155" x="144.9592654" y="-37.8061852" /><node id="2170946980" x="144.9841272" y="-37.802047" /><node id="390923703" x="144.9430854" y="-37.7947175" /><node id="390923704" x="144.9431094" y="-37.7945682" /><node id="1525908946" x="144.9696843" y="-37.8167372" /><node id="291210710" x="144.9651055" y="-37.8068371" /><node id="3134424541" x="144.9939241" y="-37.795782" /><node id="1525908992" x="144.9786972" y="-37.8233043" /><node id="3790964227" x="144.9170256" y="-37.8017011" /><node id="2358674957" x="145.0202975" y="-37.8263722" /><node id="296027680" x="144.9452685" y="-37.8118428" /><node id="1132070442" x="144.9433469" y="-37.8125431" /><node id="1132070443" x="144.9420656" y="-37.8119728" /><node id="1132070445" x="144.9394245" y="-37.8106104" /><node id="296027697" x="144.9447809" y="-37.8120306" /><node id="296027698" x="144.9448478" y="-37.8120773" /><node id="1132070451" x="144.9418662" y="-37.8118589" /><node id="1132070452" x="144.9394491" y="-37.8106761" /><node id="348718646" x="144.8947759" y="-37.814102" /><node id="296027706" x="144.946106" y="-37.8115266" /><node id="1132070461" x="144.9412566" y="-37.8116351" /><node id="266733118" x="144.9906716" y="-37.8110988" /><node id="296027713" x="144.9467488" y="-37.811306" /><node id="1132070467" x="144.9435681" y="-37.8125106" /><node id="1132070468" x="144.9432561" y="-37.81254" /><node id="296027719" x="144.9449217" y="-37.8120651" /><node id="1132070472" x="144.942872" y="-37.812447" /><node id="153758647" x="144.9753144" y="-37.8202041" /><node id="1132070479" x="144.9394178" y="-37.8105649" /><node id="1132070481" x="144.9450824" y="-37.8119128" /><node id="1132070484" x="144.9394191" y="-37.8105225" /><node id="1132070487" x="144.9424858" y="-37.8122231" /><node id="1132070489" x="144.9437448" y="-37.812462" /><node id="1132070491" x="144.9394338" y="-37.8106443" /><node id="92243550" x="144.9314214" y="-37.7945633" /><node id="227508496" x="144.9593225" y="-37.8096849" /><node id="1316062834" x="144.9398771" y="-37.7890959" /><node id="608962176" x="145.0091497" y="-37.8031629" /><node id="608962181" x="145.0092333" y="-37.8029278" /><node id="608962182" x="145.0093187" y="-37.8028251" /><node id="608962183" x="145.0094138" y="-37.8028616" /><node id="608962184" x="145.0094388" y="-37.8028165" /><node id="3855648395" x="144.8721326" y="-37.8097017" /><node id="2358675090" x="145.0201288" y="-37.8262264" /><node id="1316062877" x="144.9390989" y="-37.7890011" /><node id="75105959" x="144.8972583" y="-37.7994945" /><node id="2358675121" x="145.0202355" y="-37.8263207" /><node id="767592114" x="144.973188" y="-37.8083771" /><node id="767592115" x="144.9731558" y="-37.8085307" /><node id="767592116" x="144.9731464" y="-37.8086017" /><node id="777782973" x="144.9539765" y="-37.8044137" /><node id="777782984" x="144.9538293" y="-37.8043846" /><node id="266733258" x="144.978232" y="-37.8098985" /><node id="361268957" x="144.9778822" y="-37.7989968" /><node id="2226656891" x="144.9318499" y="-37.7884069" /><node id="643991276" x="144.9886387" y="-37.8244134" /><node id="2612216109" x="144.8675799" y="-37.8114934" /><node id="2187986709" x="144.9718688" y="-37.8116391" /><node id="2187986713" x="144.9720366" y="-37.8115654" /><node id="4443178785" x="144.9537937" y="-37.7985928" /><node id="4443178786" x="144.9530412" y="-37.7979905" /><node id="86673207" x="144.9307636" y="-37.7944882" /><node id="1985546060" x="144.9649319" y="-37.8033094" /><node id="3494348621" x="144.9701227" y="-37.8185268" /><node id="247007089" x="144.967153" y="-37.8097324" /><node id="528648054" x="144.9487372" y="-37.8206199" /><node id="247007096" x="144.9675642" y="-37.8096131" /><node id="224757641" x="144.9931365" y="-37.8072913" /><node id="711333527" x="144.9559998" y="-37.8063165" /><node id="781082254" x="145.0151461" y="-37.8254079" /><node id="4680892742" x="144.8957759" y="-37.8151072" /><node id="4716365735" x="144.8984356" y="-37.8064262" /><node id="4716365736" x="144.8995016" y="-37.8067317" /><node id="4716365737" x="144.9001913" y="-37.8069312" /><node id="4716365738" x="144.8994861" y="-37.8084568" /><node id="224757682" x="144.9941797" y="-37.8073834" /><node id="767592374" x="144.9733125" y="-37.8078938" /><node id="309981391" x="145.0342207" y="-37.8055493" /><node id="702351321" x="144.9366579" y="-37.8051653" /><node id="250480602" x="145.0058842" y="-37.8118559" /><node id="781112997" x="144.9491929" y="-37.8029596" /><node id="250480609" x="145.0063192" y="-37.8111224" /><node id="4443178990" x="144.9447422" y="-37.7913724" /><node id="4443178991" x="144.9427301" y="-37.7897657" /><node id="4443178992" x="144.9425041" y="-37.789571" /><node id="250480641" x="145.005486" y="-37.8110388" /><node id="3980971772" x="144.9494234" y="-37.8160795" /><node id="767592455" x="144.9733064" y="-37.8079299" /><node id="250480649" x="145.0047212" y="-37.8109632" /><node id="250480655" x="145.003222" y="-37.8108189" /><node id="3855648786" x="144.871208" y="-37.8101977" /><node id="2358675478" x="145.0201819" y="-37.8262705" /><node id="250480666" x="145.0015254" y="-37.8106542" /><node id="250480669" x="145.0023363" y="-37.8107328" /><node id="356452387" x="144.9863214" y="-37.8052631" /><node id="4815356253" x="144.9671282" y="-37.8074224" /><node id="3529934913" x="144.9152586" y="-37.8077572" /><node id="3529934921" x="144.9144864" y="-37.8076796" /><node id="4520380491" x="144.9555699" y="-37.8083294" /><node id="4520380492" x="144.9555354" y="-37.8083198" /><node id="2358675541" x="145.0196626" y="-37.8261691" /><node id="702351447" x="144.9377278" y="-37.8053775" /><node id="168396901" x="144.9613741" y="-37.8114081" /><node id="702351473" x="144.9379276" y="-37.8054443" /><node id="702351474" x="144.9383219" y="-37.8055895" /><node id="702351475" x="144.9388946" y="-37.8058215" /><node id="3189540981" x="144.8776746" y="-37.8197573" /><node id="3189540982" x="144.8672794" y="-37.8075778" /><node id="3189540983" x="144.866269" y="-37.8074825" /><node id="702351481" x="144.9408821" y="-37.8056711" /><node id="702351482" x="144.941098" y="-37.8055873" /><node id="702351483" x="144.941322" y="-37.8055005" /><node id="4520380551" x="144.9610823" y="-37.8192375" /><node id="4520380552" x="144.9610481" y="-37.8192474" /><node id="767658128" x="144.9733168" y="-37.8067611" /><node id="767658129" x="144.9733777" y="-37.8067667" /><node id="767658130" x="144.9734147" y="-37.8067707" /><node id="3427731614" x="144.8865125" y="-37.8022639" /><node id="3427731615" x="144.8848755" y="-37.8022706" /><node id="3427731616" x="144.8848861" y="-37.8022907" /><node id="3427731617" x="144.8838244" y="-37.8022967" /><node id="3427731619" x="144.8841847" y="-37.8023359" /><node id="3427731620" x="144.8844726" y="-37.8023359" /><node id="3427731621" x="144.8843157" y="-37.8023436" /><node id="3427731623" x="144.8860093" y="-37.8025303" /><node id="781093034" x="144.9496697" y="-37.8031153" /><node id="4826317170" x="144.8994882" y="-37.8052901" /><node id="2358053040" x="144.9882762" y="-37.8133238" /><node id="2358053046" x="144.9883343" y="-37.8133654" /><node id="244222135" x="144.9727149" y="-37.7990652" /><node id="2358053048" x="144.98849" y="-37.8133418" /><node id="2358053049" x="144.988423" y="-37.8133714" /><node id="244222138" x="144.9727542" y="-37.7990528" /><node id="305913666" x="145.0008396" y="-37.8006046" /><node id="2428766397" x="144.9847769" y="-37.7982665" /><node id="4826317173" x="144.8984429" y="-37.8060103" /><node id="4826317175" x="144.8986434" y="-37.8064845" /><node id="4826317178" x="144.8986168" y="-37.8063346" /><node id="906234081" x="145.0079732" y="-37.80211" /><node id="906234082" x="145.0060987" y="-37.801079" /><node id="906234083" x="145.0072282" y="-37.8017719" /><node id="906234084" x="145.0065842" y="-37.8013707" /><node id="906234085" x="145.0056016" y="-37.8008524" /><node id="906234086" x="145.0053962" y="-37.8007886" /><node id="906234087" x="145.003571" y="-37.8007826" /><node id="906234088" x="145.0075727" y="-37.8019309" /><node id="906234089" x="145.0048134" y="-37.8007309" /><node id="906234090" x="145.0091393" y="-37.8026077" /><node id="906234091" x="145.0070009" y="-37.8016431" /><node id="906234092" x="145.0062816" y="-37.8011834" /><node id="906234093" x="145.0067066" y="-37.8014382" /><node id="906234094" x="145.0058592" y="-37.8009496" /><node id="906234095" x="145.0032655" y="-37.8008536" /><node id="906234096" x="145.0067632" y="-37.8014828" /><node id="906234097" x="145.004988" y="-37.8007345" /><node id="906234098" x="145.0093351" y="-37.8026895" /><node id="906234099" x="145.0087633" y="-37.8024551" /><node id="711333589" x="144.9560312" y="-37.8061324" /><node id="2484734226" x="144.9290164" y="-37.788382" /><node id="2484734227" x="144.928935" y="-37.7883982" /><node id="233245002" x="144.9863653" y="-37.7963435" /><node id="5102884583" x="144.8734839" y="-37.8120759" /><node id="128882408" x="145.0019821" y="-37.8015511" /><node id="370477432" x="145.0195781" y="-37.806708" /><node id="233245054" x="144.986503" y="-37.7955093" /><node id="767658367" x="144.9732323" y="-37.8073053" /><node id="781093248" x="144.9468256" y="-37.8027925" /><node id="420022666" x="144.9964897" y="-37.8115122" /><node id="95562821" x="144.9301719" y="-37.802308" /><node id="1833142694" x="144.8816402" y="-37.8026089" /><node id="1833142699" x="144.8830631" y="-37.8037719" /><node id="1833142700" x="144.8814018" y="-37.8021716" /><node id="1833142702" x="144.8838089" y="-37.8032102" /><node id="1833142704" x="144.8832054" y="-37.8035345" /><node id="370477489" x="145.0184623" y="-37.8065809" /><node id="1833142707" x="144.8845643" y="-37.8028087" /><node id="370477495" x="145.0170917" y="-37.8061147" /><node id="462850492" x="145.0630462" y="-37.8106435" /><node id="55118295" x="144.9578806" y="-37.7996308" /><node id="781093374" x="144.9481976" y="-37.8029482" /><node id="356125188" x="144.9798435" y="-37.8184073" /><node id="306383379" x="144.9417417" y="-37.8053733" /><node id="702450201" x="144.9440242" y="-37.8054558" /><node id="767658527" x="144.9732904" y="-37.8076272" /><node id="144720305" x="144.9555433" y="-37.8198263" /><node id="702351916" x="144.936819" y="-37.8052662" /><node id="4747758133" x="144.8967104" y="-37.814324" /><node id="4747758134" x="144.8967292" y="-37.8142432" /><node id="4747758135" x="144.8967373" y="-37.8142024" /><node id="4747758136" x="144.8967572" y="-37.8141826" /><node id="4747758137" x="144.8968022" y="-37.8141805" /><node id="4747758138" x="144.8968828" y="-37.814192" /><node id="4747758139" x="144.8969913" y="-37.8142076" /><node id="4747758140" x="144.8970323" y="-37.8142024" /><node id="4747758141" x="144.8970442" y="-37.8141867" /><node id="4747758142" x="144.8970799" y="-37.8140122" /><node id="4747758143" x="144.8970905" y="-37.813984" /><node id="4747758144" x="144.8971236" y="-37.813961" /><node id="4747758145" x="144.8971742" y="-37.8139595" /><node id="4747758146" x="144.8972476" y="-37.8139597" /><node id="4747758149" x="144.8969267" y="-37.8141983" /><node id="137172748" x="144.9562368" y="-37.8049481" /><node id="767658571" x="144.9732695" y="-37.8076246" /><node id="4747758156" x="144.8970552" y="-37.8141332" /><node id="368380515" x="144.9701673" y="-37.7989244" /><node id="368380516" x="144.9701504" y="-37.7990245" /><node id="266734181" x="144.976053" y="-37.8060715" /><node id="623023889" x="144.898393" y="-37.8081575" /><node id="2309687922" x="144.8992716" y="-37.8040344" /><node id="2309687923" x="144.9008196" y="-37.8040705" /><node id="266734205" x="144.9734049" y="-37.8076698" /><node id="3804564094" x="144.9949336" y="-37.8197666" /><node id="2309687935" x="144.8993646" y="-37.8039959" /><node id="385026689" x="144.9975125" y="-37.8006678" /><node id="3804564102" x="144.9942791" y="-37.8196504" /><node id="3804564103" x="144.9942954" y="-37.8196345" /><node id="3804564104" x="144.9943172" y="-37.8196235" /><node id="3804564105" x="144.9943424" y="-37.8196185" /><node id="3804564106" x="144.9943891" y="-37.8196264" /><node id="3804564107" x="144.994407" y="-37.8196372" /><node id="3804564108" x="144.9944204" y="-37.8196514" /><node id="3804564109" x="144.9944284" y="-37.819668" /><node id="1980926607" x="144.8984081" y="-37.8059554" /><node id="1980926608" x="144.8984689" y="-37.8063013" /><node id="4787407507" x="144.9018326" y="-37.8033559" /><node id="2815396505" x="145.0521351" y="-37.8093469" /><node id="4787407516" x="144.9019581" y="-37.8030904" /><node id="2815396509" x="145.0521848" y="-37.8091478" /><node id="3804564126" x="144.9967863" y="-37.8255451" /><node id="2815396511" x="145.0530452" y="-37.8092664" /><node id="2815396512" x="145.053064" y="-37.8092939" /><node id="2815396513" x="145.0530343" y="-37.809456" /><node id="123355835" x="144.9257817" y="-37.7972036" /><node id="356092608" x="144.9989599" y="-37.8197652" /><node id="3961293505" x="144.9630814" y="-37.8077694" /><node id="3961293507" x="144.9632852" y="-37.8082401" /><node id="1700563685" x="145.0527545" y="-37.7898499" /><node id="1700563687" x="145.0415558" y="-37.7903658" /><node id="1700563688" x="145.0431611" y="-37.7904531" /><node id="1700563689" x="145.0508509" y="-37.7905291" /><node id="86674156" x="144.9388412" y="-37.7954076" /><node id="86674159" x="144.9366705" y="-37.7951569" /><node id="86674161" x="144.9354249" y="-37.7950203" /><node id="2472143998" x="144.9936721" y="-37.7958518" /><node id="1833110267" x="144.9680139" y="-37.8172189" /><node id="1833110268" x="144.9582187" y="-37.8200286" /><node id="1833110274" x="144.9614422" y="-37.8191333" /><node id="1833110275" x="144.960084" y="-37.819498" /><node id="1833110277" x="144.9599034" y="-37.8195447" /><node id="1833110282" x="144.9630157" y="-37.8186767" /><node id="5034412815" x="144.9939339" y="-37.7958233" /><node id="1833110288" x="144.9623989" y="-37.8188564" /><node id="3933094360" x="144.9595936" y="-37.806137" /><node id="1996851987" x="144.8995855" y="-37.7950323" /><node id="1833110294" x="144.9693154" y="-37.8168442" /><node id="4457663259" x="144.9319205" y="-37.7883852" /><node id="4457663260" x="144.9317054" y="-37.7883965" /><node id="1833110301" x="144.9697926" y="-37.8167058" /><node id="1833110304" x="144.9590356" y="-37.8197944" /><node id="1996852003" x="144.8972718" y="-37.7962421" /><node id="1996852005" x="144.8971808" y="-37.7962831" /><node id="247008040" x="144.9679328" y="-37.8095062" /><node id="1833110318" x="144.9645541" y="-37.8182286" /><node id="1833110319" x="144.9659203" y="-37.8070269" /><node id="247008053" x="144.9681819" y="-37.8104897" /><node id="356453177" x="144.9862639" y="-37.8055859" /><node id="247008062" x="144.9683419" y="-37.8104421" /><node id="127601472" x="144.9439706" y="-37.8057346" /><node id="304712522" x="145.0276181" y="-37.8149184" /><node id="3933094370" x="144.9656798" y="-37.8069015" /><node id="4754213727" x="144.8955911" y="-37.8092785" /><node id="4754213728" x="144.8957281" y="-37.8091357" /><node id="3176139618" x="144.930104" y="-37.7944129" /><node id="242532840" x="144.9724538" y="-37.7991681" /><node id="1928268659" x="145.0621558" y="-37.8114277" /><node id="309988225" x="145.0404939" y="-37.8032912" /><node id="309988243" 