<routes><vType accel="4.6" decel="4.2" id="Car0" length="20.2" maxSpeed="116" sigma="0.74544331074" /><vType accel="2.8" decel="3.0" id="Car1" length="21.6" maxSpeed="100" sigma="0.476443309063" /><vType accel="0.9" decel="6.1" id="Car2" length="22.7" maxSpeed="118" sigma="0.25060086015" /><vType accel="2.1" decel="7.3" id="Car3" length="14.4" maxSpeed="61" sigma="0.651735385511" /><vType accel="0.9" decel="7.0" id="Car4" length="9.7" maxSpeed="94" sigma="0.42421939473" /><vType accel="0.9" decel="7.3" id="Car5" length="8.2" maxSpeed="71" sigma="0.331228407437" /><vType accel="1.0" decel="5.4" id="Car6" length="13.1" maxSpeed="114" sigma="0.403758318859" /><route edges="1928298965_313441047 313441047_313440696 313440696_313254247 313254247_313254248 313254248_313254135 313254135_313254237 313254237_313254107 313254107_313254089 313254089_313140253 313140253_313140255 313140255_313140297 313140297_875512291 875512291_875512290 875512290_673083767 673083767_673083766 673083766_673083764 673083764_313140107 313140107_313140045 313140045_313248462 313248462_21643809 21643809_313248453 313248453_462859358 462859358_462868395 462868395_311901574 311901574_310001311 310001311_4695022397 4695022397_4695022177 4695022177_4695022400 4695022400_310001315 310001315_4695022131 4695022131_4695022403 4695022403_310001313 310001313_310001304 310001304_309977100 309977100_2123710642 2123710642_370482122 370482122_2123710629 2123710629_370482116 370482116_2123710640 2123710640_370482121 370482121_2123710630 2123710630_370482117 370482117_309977235 309977235_309977505 309977505_309977300 309977300_309977428 309977428_309977132 309977132_263991606 263991606_4679496738 4679496738_4679496737 4679496737_4679496733 4679496733_1657066780 1657066780_1657066700 1657066700_1657066749 1657066749_1657066765 1657066765_1657066770 1657066770_1657066724 1657066724_4679496786 4679496786_1657066694 1657066694_1657066688 1657066688_1657066708 1657066708_4679496784 4679496784_5300044889 5300044889_5300044906 5300044906_5300044907 5300044907_5300044908 5300044908_5300044909 5300044909_995942509 995942509_995942483 995942483_995942493 995942493_4679496892 4679496892_4679496893 4679496893_4679496894 4679496894_4679496895 4679496895_4679496896 4679496896_4679496897 4679496897_4679496898 4679496898_2247591101 2247591101_2247672417 2247672417_2247591117 2247591117_876910906 876910906_309984697 309984697_21643741 21643741_309989573 309989573_309989084 309989084_1657067339 1657067339_309988225 309988225_2247662465 2247662465_1657067341 1657067341_309971077 309971077_309985025 309985025_309970358 309970358_309970191 309970191_2080740198 2080740198_2247591105 2247591105_2247591103 2247591103_2247591118 2247591118_4802879116 4802879116_4802879113 4802879113_4802879112 4802879112_304701810 304701810_3071691488 3071691488_309969348 309969348_309969259 309969259_304701495 304701495_2245347134 2245347134_304700727 304700727_304701498 304701498_457407495 457407495_304700685 304700685_5232574433 5232574433_4790942986 4790942986_4790942985 4790942985_1700619562 1700619562_210734545 210734545_1522834456 1522834456_1522834356 1522834356_1522976990 1522976990_1522834323 1522834323_1522834449 1522834449_1522834345 1522834345_1522834377 1522834377_1522834355 1522834355_31477188 31477188_31477187 31477187_31477186 31477186_2940375840 2940375840_370477432 370477432_214122372 214122372_370477489 370477489_31477185 31477185_31477184 31477184_2940375839 2940375839_370477495 370477495_214122180 214122180_214092481 214092481_214092477 214092477_2421353385 2421353385_214124448 214124448_2176972920 2176972920_2421353392 2421353392_2421353383 2421353383_299024279 299024279_277368256 277368256_277368255 277368255_2621587175 2621587175_299024277 299024277_277368254 277368254_277368253 277368253_277368252 277368252_277368251 277368251_277368222 277368222_723971538 723971538_277368223 277368223_277368224 277368224_277368225 277368225_277368226 277368226_277368227 277368227_723970899 723970899_277368228 277368228_723970902 723970902_277368229 277368229_723970906 723970906_277368230 277368230_277367197 277367197_723970757 723970757_1093410280 1093410280_277367198 277367198_723970759 723970759_277367199 277367199_723970762 723970762_723970764 723970764_277367200 277367200_277367201 277367201_723970767 723970767_723970768 723970768_277367202 277367202_1093410277 1093410277_277367203 277367203_723970374 723970374_277367204 277367204_723970429 723970429_723970430 723970430_277367205 277367205_277367206 277367206_277367208 277367208_277367211 277367211_723969549 723969549_277367212 277367212_55846718 55846718_1986325609 1986325609_3730054579 3730054579_2481930364 2481930364_2481930362 2481930362_1986325611 1986325611_1982297474 1982297474_3427761887 3427761887_781118652 781118652_583473687 583473687_2481930530 2481930530_781120729 781120729_30287594 30287594_3830161454 3830161454_129291097 129291097_129291065 129291065_129288610 129288610_493051265 493051265_224761654 224761654_2755279435 2755279435_224761795 224761795_224757641 224757641_224761617 224761617_224738476 224738476_222958329 222958329_248969196 248969196_222957430 222957430_223007282 223007282_493051207 493051207_224738431 224738431_222987367 222987367_356449457 356449457_493051212 493051212_301548221 301548221_301548220 301548220_717123684 717123684_301548223 301548223_4936954236 4936954236_332152166 332152166_3775020762 3775020762_332152172 332152172_4936948366 4936948366_4936948369 4936948369_4936948368 4936948368_4936948367 4936948367_241807173 241807173_3281073163 3281073163_30220702 30220702_224750434 224750434_224750388 224750388_2358071077 2358071077_628761345 628761345_2368035914 2368035914_269335260 269335260_30945575 30945575_3419339847 3419339847_3937111753 3937111753_224750232 224750232_30287465 30287465_3419344120 3419344120_3419344115 3419344115_4283908115 4283908115_2189358931 2189358931_2318333325 2318333325_2189358929 2189358929_2189358901 2189358901_4297530214 4297530214_30287464 30287464_4297530210 4297530210_652430413 652430413_233275077 233275077_652430415 652430415_233314824 233314824_4294474621 4294474621_2200514713 2200514713_2797986652 2797986652_4294474620 4294474620_2797986650 2797986650_4294474622 4294474622_2797986651 2797986651_2200514710 2200514710_501027469 501027469_767658128 767658128_767658367 767658367_767584931 767584931_767659043 767659043_767659045 767659045_767667492 767667492_767667831 767667831_767667826 767667826_501027474 501027474_767584716 767584716_277089909 277089909_277089910 277089910_1691676483 1691676483_3933095111 3933095111_2181275336 2181275336_2841675040 2841675040_767584383 767584383_2181275344 2181275344_3367904416 3367904416_2841675044 2841675044_2181275328 2181275328_2841675047 2841675047_2181275335 2181275335_3367904399 3367904399_3937113657 3937113657_1985557917 1985557917_1985557915 1985557915_1985557941 1985557941_1833110319 1833110319_1985551133 1985551133_3933094374 3933094374_2707985442 2707985442_1985551131 1985551131_1985551132 1985551132_30943325 30943325_1985549836 1985549836_3933090380 3933090380_2023894041 2023894041_317536476 317536476_1725216746 1725216746_137181160 137181160_3933090548 3933090548_317535752 317535752_356215162 356215162_2505811398 2505811398_1492410162 1492410162_1492410185 1492410185_1492410156 1492410156_1492410217 1492410217_1492410149 1492410149_1492410158 1492410158_3537280109 3537280109_3537280111 3537280111_1492410150 1492410150_1492410191 1492410191_1492410169 1492410169_1492410214 1492410214_3933086393 3933086393_4005305751 4005305751_775942450 775942450_1900213541 1900213541_774547223 774547223_777771693 777771693_1725216852 1725216852_774546374 774546374_775941673 775941673_774546373 774546373_775945874 775945874_775941588 775941588_774546372 774546372_1895925155 1895925155_2991935464 2991935464_1691676440 1691676440_711359068 711359068_711369366 711369366_711358863 711358863_711358867 711358867_708717121 708717121_2991935465 2991935465_708717112 708717112_777753012 777753012_777753011 777753011_777745518 777745518_777753008 777753008_777753006 777753006_777793471 777793471_317369539 317369539_3215191978 3215191978_711331192 711331192_317369535 317369535_317369537 317369537_3215191972 3215191972_3215191975 3215191975_2266563643 2266563643_2266563649 2266563649_30467855 30467855_2266563661 2266563661_2266563663 2266563663_3306876678 3306876678_2266563642 2266563642_35354279 35354279_3215106494 3215106494_3215106488 3215106488_259616744 259616744_387153097 387153097_259616740 259616740_3394768954 3394768954_767584756 767584756_387153089 387153089_767584755 767584755_1686695079 1686695079_387153023 387153023_387153031 387153031_801840602 801840602_3215192000 3215192000_3212024922 3212024922_3204395233 3204395233_3204395232 3204395232_3204395231 3204395231_3204395230 3204395230_3204395229 3204395229_4551628270 4551628270_387153032 387153032_30942260 30942260_4518394737 4518394737_3215192041 3215192041_30942261 30942261_332546228 332546228_332546227 332546227_30942262 30942262_332546017 332546017_332544866 332544866_332544912 332544912_3394730438 3394730438_3215106461 3215106461_387152990 387152990_30942265 30942265_5232347243 5232347243_5232347244 5232347244_5232347252 5232347252_289602864 289602864_289602878 289602878_5232347249 5232347249_289597256 289597256_289602744 289602744_663471013 663471013_289648906 289648906_3394730432 3394730432_1492131968 1492131968_1492131937 1492131937_296027713 296027713_1492131952 1492131952_296027706 296027706_305106971 305106971_3970811103 3970811103_3970811102 3970811102_3970811099 3970811099_3970811100 3970811100_3970811098 3970811098_3313036364 3313036364_3313036363 3313036363_26680088 26680088_26680087 26680087_1132070461 1132070461_26680084 26680084_1132070452 1132070452_571460260 571460260_306905310 306905310_41675607 41675607_129554697 129554697_634775152 634775152_129554693 129554693_634775151 634775151_41675603 41675603_560997640 560997640_41675601 41675601_560997636 560997636_129554690 129554690_560997615 560997615_129554689 129554689_709706163 709706163_709706159 709706159_709706157 709706157_129554688 129554688_560997614 560997614_310727922 310727922_33366754 33366754_560997317 560997317_560997597 560997597_41667991 41667991_1224872741 1224872741_304710871 304710871_304710870 304710870_3285633579 3285633579_5320613467 5320613467_5322615232 5322615232_76459258 76459258_4415760632 4415760632_3285633576 3285633576_2172718107 2172718107_76459296 76459296_30286983 30286983_2613010008 2613010008_35726391 35726391_129549424 129549424_373650760 373650760_373650761 373650761_373650762 373650762_373650763 373650763_373650764 373650764_373650766 373650766_373649829 373649829_373650768 373650768_373650770 373650770_373649883 373649883_373650772 373650772_373650774 373650774_373650775 373650775_3895976681 3895976681_373650806 373650806_35726397 35726397_129548031 129548031_129548032 129548032_129548034 129548034_129548035 129548035_129546479 129546479_129546974 129546974_129546975 129546975_129546480 129546480_373653750 373653750_373652976 373652976_373653770 373653770_129546481 129546481_129546482 129546482_3529934913 3529934913_3529934921 3529934921_35726399 35726399_129546485 129546485_129546486 129546486_129545518 129545518_35726400 35726400_129545519 129545519_129545520 129545520_35726476 35726476_35726477 35726477_295875005 295875005_35726478 35726478_4793613075 4793613075_129545521 129545521_295874660 295874660_878569544 878569544_878569559 878569559_5495352687 5495352687_3176128932 3176128932_5495352683 5495352683_878569548 878569548_878569564 878569564_878569556 878569556_583189179 583189179_583189061 583189061_3221150099 3221150099_4740947181 4740947181_5495352681 5495352681_4740947180 4740947180_3363082672 3363082672_3363082665 3363082665_3363082671 3363082671_3363082673 3363082673_3363082658 3363082658_3363082659 3363082659_122728026 122728026_5417879353 5417879353_4969348348 4969348348_250002447 250002447_250002446 250002446_4861513666 4861513666_1980953408 1980953408_250002445 250002445_250042862 250042862_2718787402 2718787402_250001488 250001488_250002299 250002299_4716365737 4716365737_4785817343 4785817343_4785817348 4785817348_4785817344 4785817344_4785817345 4785817345_4826317174 4826317174_4826317175 4826317175_4716365735 4716365735_1980926608 1980926608_250004334 250004334_4826317173 4826317173_1980926607 1980926607_1980926605 1980926605_250004335 250004335_5010855213 5010855213_827129294 827129294_623012735 623012735_5010855215 5010855215_623023864 623023864_623023860 623023860_623023857 623023857_623023855 623023855_273117542 273117542_623023852 623023852_623023848 623023848_623023846 623023846_623012733 623012733_3783327954 3783327954_3783327953 3783327953_3783327952 3783327952_3783327949 3783327949_623012192 623012192_623012185 623012185_623012181 623012181_623012177 623012177_75136343 75136343_623012729 623012729_75136345 75136345_1585403348 1585403348_1585403334 1585403334_1585403279 1585403279_1585522852 1585522852_1585403230 1585403230_1585403232 1585403232_1585403308 1585403308_623012734 623012734_1585403271 1585403271_273107857 273107857_273107921 273107921_75136351 75136351_2311300521 2311300521_75136354 75136354_322529029 322529029_3221168427 3221168427_2311300529 2311300529_75136358 75136358_2311300578 2311300578_75136359 75136359_2311300527 2311300527_2311300545 2311300545_75136360 75136360_2311300555 2311300555_3427731616 3427731616_75136362 75136362_2311300580 2311300580_2311300565 2311300565_2311300552 2311300552_2311300577 2311300577_2311300524 2311300524_1833142690 1833142690_4999981276 4999981276_1833142707 1833142707_1833142702 1833142702_1833142704 1833142704_1833142699 1833142699_36022342 36022342_3359255433 3359255433_3359255435 3359255435_2268148328 2268148328_320846340 320846340_320846339 320846339_320847097 320847097_320847243 320847243_3363091680 3363091680_5158252117 5158252117_320847731 320847731_3513727290 3513727290_3513727495 3513727495_320846701 320846701_320848174 320848174_5158243642 5158243642_320847931 320847931_320846651 320846651_320853899 320853899_5158243653 5158243653_320853820 320853820_5158248175 5158248175_320853819 320853819_320853818 320853818_5158248174 5158248174_320853817 320853817_5158305356 5158305356_250291418 250291418_320852504 320852504_370708114 370708114_370708264 370708264_370708343 370708343_370708381 370708381_320852621 320852621_1833869065 1833869065_2612216102 2612216102_370708433 " id="route0" /><route edges="1928298965_313441110 313441110_313440691 313440691_313441737 313441737_313254240 313254240_313139758 313139758_1928315581 1928315581_1928315592 1928315592_1928315579 1928315579_1928315589 1928315589_1928315553 1928315553_1928315555 1928315555_1928315558 1928315558_1928315573 1928315573_1928315552 1928315552_1928315586 1928315586_313139789 313139789_2245992486 2245992486_29960443 29960443_314457781 314457781_313139810 313139810_314457753 314457753_3494863649 3494863649_314461469 314461469_313139819 313139819_5045891610 5045891610_314456863 314456863_313139910 313139910_314456316 314456316_313139857 313139857_3494863650 3494863650_313139953 313139953_2381887355 2381887355_462844528 462844528_304705564 304705564_462850492 462850492_304705458 304705458_462849962 462849962_4326585010 4326585010_4326585009 4326585009_29936554 29936554_4326585008 4326585008_4142788490 4142788490_311901127 311901127_29960343 29960343_2245577417 2245577417_304705278 304705278_304705227 304705227_309975117 309975117_2815396513 2815396513_2815396512 2815396512_2815396511 2815396511_2815396510 2815396510_2815396509 2815396509_2815396505 2815396505_309975281 309975281_309975083 309975083_304704681 304704681_2245577415 2245577415_309975063 309975063_29960342 29960342_304704449 304704449_309972751 309972751_2245577416 2245577416_304704443 304704443_2938998243 2938998243_304704440 304704440_2080740191 2080740191_309972045 309972045_309972112 309972112_304704429 304704429_309971000 309971000_21643772 21643772_4000710669 4000710669_850722885 850722885_309970344 309970344_304701852 304701852_2245347112 2245347112_304701851 304701851_304700794 304700794_3071689559 3071689559_3071689094 3071689094_4288151624 4288151624_2245347115 2245347115_304701810 304701810_3071691488 3071691488_309969348 309969348_309969259 309969259_2245347109 2245347109_4034623519 4034623519_4034623520 4034623520_4034623521 4034623521_4790942635 4790942635_4790942634 4790942634_309979105 309979105_4169720251 4169720251_2245333840 2245333840_2245339628 2245339628_2245339643 2245339643_4169720287 4169720287_29936553 29936553_4169720259 4169720259_309978787 309978787_1522977019 1522977019_1522839079 1522839079_1522566268 1522566268_1522834359 1522834359_1522566317 1522566317_1522834449 1522834449_1522834345 1522834345_1522834377 1522834377_1522834355 1522834355_31477188 31477188_31477187 31477187_31477186 31477186_304699987 304699987_214122166 214122166_214122332 214122332_214092328 214092328_214092311 214092311_214092289 214092289_214092477 214092477_214092481 214092481_541122878 541122878_541122879 541122879_541122881 541122881_541122882 541122882_541122883 541122883_541122884 541122884_541122885 541122885_541122845 541122845_541122846 541122846_541122847 541122847_541122848 541122848_541122849 541122849_544367429 544367429_541122850 541122850_544367430 544367430_277366439 277366439_277367001 277367001_277367002 277367002_277366890 277366890_277366891 277366891_561538974 561538974_561538848 561538848_561538860 561538860_561538859 561538859_561538858 561538858_561538857 561538857_561538850 561538850_561538849 561538849_5406797171 5406797171_1093410314 1093410314_561538856 561538856_561538854 561538854_561538853 561538853_561538847 561538847_561538845 561538845_561538870 561538870_1093410310 1093410310_1093410311 1093410311_1093410312 1093410312_4698484056 4698484056_561538868 561538868_31477175 31477175_305909758 305909758_31477174 31477174_906234095 906234095_3067843936 3067843936_827113739 827113739_128874949 128874949_4698523257 4698523257_128882462 128882462_128882408 128882408_3065030524 3065030524_3065030525 3065030525_128882422 128882422_128874960 128874960_305913668 305913668_305913667 305913667_305913666 305913666_151451933 151451933_305913661 305913661_305913663 305913663_128882514 128882514_1519470746 1519470746_31477172 31477172_1519470912 1519470912_283059741 283059741_129288570 129288570_2006021064 2006021064_5034416925 5034416925_1519470958 1519470958_4696480570 4696480570_319860962 319860962_4696480571 4696480571_1519471032 1519471032_1519471015 1519471015_1521014718 1521014718_31477171 31477171_38779052 38779052_248969197 248969197_1519470760 1519470760_227324606 227324606_356474935 356474935_227324666 227324666_356474868 356474868_356474751 356474751_227324345 227324345_356474390 356474390_227324534 227324534_356474260 356474260_227324467 227324467_356474167 356474167_227324395 227324395_384006483 384006483_1985429676 1985429676_2469585431 2469585431_1095506178 1095506178_1095506241 1095506241_1095506213 1095506213_1095506253 1095506253_1095506175 1095506175_227770471 227770471_599920254 599920254_227770375 227770375_385165916 385165916_1148837660 1148837660_2213981059 2213981059_227770320 227770320_30287470 30287470_1600686286 1600686286_361282276 361282276_4297530199 4297530199_361282355 361282355_361282768 361282768_615176084 615176084_4305342593 4305342593_615176100 615176100_615176097 615176097_615176095 615176095_615176093 615176093_373008444 373008444_443310349 443310349_373008657 373008657_443310350 443310350_3812058510 3812058510_373008467 373008467_233262607 233262607_368376892 368376892_233262588 233262588_338577629 338577629_338577817 338577817_224750259 224750259_364847214 364847214_364847215 364847215_224750365 224750365_4297530218 4297530218_871135414 871135414_4297530219 4297530219_233555460 233555460_628761345 628761345_2368035914 2368035914_269335260 269335260_30945575 30945575_4283908124 4283908124_304893434 304893434_4283908126 4283908126_170219384 170219384_3419339848 3419339848_376145144 376145144_376145063 376145063_381825173 381825173_2189398733 2189398733_4283908139 4283908139_4283908138 4283908138_2189398724 2189398724_3419354754 3419354754_367132897 367132897_767587073 767587073_281361788 281361788_767586831 767586831_2324975789 2324975789_1713460615 1713460615_3419354755 3419354755_3419354764 3419354764_277089929 277089929_26034668 26034668_3419354750 3419354750_595858242 595858242_3191033050 3191033050_589402311 589402311_26034670 26034670_3367904413 3367904413_247018098 247018098_247008046 247008046_247008062 247008062_247008053 247008053_247012072 247012072_247010162 247010162_1985557919 1985557919_1985557923 1985557923_26034669 26034669_3367904418 3367904418_4544002874 4544002874_245537608 245537608_4544002875 4544002875_245537592 245537592_1838361789 1838361789_2187770709 2187770709_2187770700 2187770700_2187973144 2187973144_2187973146 2187973146_2187973145 2187973145_2187770704 2187770704_2187770698 2187770698_1903722314 1903722314_2187770695 2187770695_1558806066 1558806066_1558806077 1558806077_176703213 176703213_176693430 176693430_176699680 176699680_714724462 714724462_176693402 176693402_2190483597 2190483597_176693360 176693360_2190483583 2190483583_4326586190 4326586190_4326586189 4326586189_2190483587 2190483587_4326586187 4326586187_4326586188 4326586188_2190483588 2190483588_3394697031 3394697031_2181275341 2181275341_2181275332 2181275332_2181275342 2181275342_2181275339 2181275339_3543021912 3543021912_2181275333 2181275333_2181275327 2181275327_2189145386 2189145386_2291073991 2291073991_2291073992 2291073992_2291073998 2291073998_1833115017 1833115017_1835199887 1835199887_4952478803 4952478803_4952478804 4952478804_4952478805 4952478805_4952478806 4952478806_4952478807 4952478807_4952478808 4952478808_4952478809 4952478809_4952478810 4952478810_4952478811 4952478811_4952478812 4952478812_4952478813 4952478813_387266384 387266384_488879346 488879346_4952478826 4952478826_4952478814 4952478814_387266437 387266437_572044631 572044631_2185303492 2185303492_387266367 387266367_2185303490 2185303490_387266428 387266428_4952478818 4952478818_387266341 387266341_2185303489 2185303489_387266340 387266340_2185303488 2185303488_4957706244 4957706244_387266338 387266338_259616751 259616751_30942994 30942994_289602599 289602599_289602608 289602608_332544910 332544910_3394738567 3394738567_332544858 332544858_332544866 332544866_3394730431 3394730431_3394730433 3394730433_3394730432 3394730432_1492131968 1492131968_1492131937 1492131937_296027713 296027713_1492131952 1492131952_296027706 296027706_305106971 305106971_3970811103 3970811103_3970811102 3970811102_3970811099 3970811099_3970811100 3970811100_3970811098 3970811098_3313036364 3313036364_3313036363 3313036363_26680088 26680088_26680087 26680087_1132070461 1132070461_26680084 26680084_1132070452 1132070452_571460260 571460260_306961201 306961201_571460262 571460262_560997595 560997595_306961195 306961195_306961188 306961188_400753614 400753614_41667993 41667993_290048317 290048317_41667991 41667991_1224872741 1224872741_304710871 304710871_304710870 304710870_3285633579 3285633579_5320613467 5320613467_5322615232 5322615232_76459258 76459258_4415760632 4415760632_3285633576 3285633576_2172718107 2172718107_76459296 76459296_3285623814 3285623814_373646060 373646060_373645976 373645976_373645935 373645935_3285622633 3285622633_373643824 373643824_2613010004 2613010004_2613010002 2613010002_373644846 373644846_3285622632 3285622632_583067729 583067729_3285622626 3285622626_75086429 75086429_2613010001 2613010001_202581663 202581663_202673221 202673221_202676494 202676494_4067315446 4067315446_202581660 202581660_2613009999 2613009999_2613009997 2613009997_202581658 202581658_295874707 295874707_75086425 75086425_3285622635 3285622635_3285622634 3285622634_202578382 202578382_202578380 202578380_295874836 295874836_3176128935 3176128935_202567088 202567088_122730503 122730503_2612992586 2612992586_4969348323 4969348323_1980953407 1980953407_249995135 249995135_122732708 122732708_3363087390 3363087390_3367881241 3367881241_3367881237 3367881237_249996882 249996882_249997007 249997007_249997008 249997008_616537413 616537413_616537592 616537592_250042862 250042862_2718787402 2718787402_250001488 250001488_250002299 250002299_4716365737 4716365737_4785817343 4785817343_2692537402 2692537402_4716365738 4716365738_4921454153 4921454153_250004329 250004329_4716365728 4716365728_250003539 250003539_250005619 250005619_250005949 250005949_250006064 250006064_4785789304 4785789304_4785789303 4785789303_4785789302 4785789302_4785789301 4785789301_4785789316 4785789316_4785789300 4785789300_4785789318 4785789318_4785789299 4785789299_4785789298 4785789298_4785789297 4785789297_4785789294 4785789294_4785789295 4785789295_1979014607 1979014607_4921456782 4921456782_459427599 459427599_250291386 250291386_459427600 459427600_4789348090 4789348090_321119022 321119022_321531128 321531128_321119839 321119839_1358269999 1358269999_250291395 250291395_616528478 616528478_616526912 616526912_320492676 320492676_320492632 320492632_2515068934 2515068934_320491443 320491443_320492523 320492523_320491432 320491432_320491673 320491673_320491981 320491981_320491983 320491983_320491661 320491661_2867881404 2867881404_2867881403 2867881403_571835726 571835726_571835365 571835365_571835364 571835364_571835362 571835362_571835717 571835717_571835360 571835360_571835359 571835359_571835677 571835677_571835358 571835358_571835673 571835673_571835672 571835672_1409483875 1409483875_1409483877 1409483877_571835356 571835356_571835355 571835355_571835354 571835354_571835353 571835353_571835352 571835352_571835351 571835351_3189524835 3189524835_571835330 571835330_3189524834 3189524834_3189524833 3189524833_571835329 571835329_3189524832 3189524832_320488742 320488742_320486479 320486479_320490330 320490330_320488710 320488710_2102862929 2102862929_2102862926 2102862926_2102862949 2102862949_2102862938 2102862938_2102862940 2102862940_2102862955 2102862955_2102862923 2102862923_2102862979 2102862979_2102862945 2102862945_2102862936 2102862936_2102862947 2102862947_2102862924 2102862924_2102862927 2102862927_2102862974 2102862974_2102862921 2102862921_320490291 320490291_320490263 320490263_2102862986 2102862986_253539106 253539106_36022330 36022330_2612216110 2612216110_2612216107 2612216107_2612216111 2612216111_2612216106 2612216106_370708263 370708263_370708264 370708264_370708343 370708343_370708381 370708381_320852621 320852621_1833869065 1833869065_2612216102 2612216102_370708433 " id="route1" /><route edges="1928298965_313441047 313441047_313440696 313440696_313254247 313254247_313254248 313254248_313254135 313254135_313254237 313254237_313254107 313254107_313254089 313254089_313254090 313254090_313249222 313249222_21643793 21643793_313140301 313140301_313249220 313249220_313140316 313140316_313249218 313249218_313249126 313249126_21643827 21643827_313156658 313156658_1622867472 1622867472_5282956555 5282956555_679106574 679106574_4060979732 4060979732_21643803 21643803_1608519172 1608519172_4060979731 4060979731_5315879311 5315879311_3917943293 3917943293_310000683 310000683_310001358 310001358_310000716 310000716_310001010 310001010_21643779 21643779_310001366 310001366_310001082 310001082_310001084 310001084_470768105 470768105_4679488612 4679488612_4679488610 4679488610_4679488618 4679488618_1488092594 1488092594_277369834 277369834_1488092590 1488092590_277369882 277369882_4204671720 4204671720_127388698 127388698_4204671719 4204671719_277369881 277369881_604124876 604124876_1488092578 1488092578_4204671692 4204671692_277369879 277369879_277369878 277369878_277369877 277369877_4204671721 4204671721_1488046391 1488046391_1488046410 1488046410_2247591096 2247591096_127390268 127390268_2247672420 2247672420_4679496898 4679496898_2247591101 2247591101_2247672417 2247672417_2247591117 2247591117_876910906 876910906_309984697 309984697_21643741 21643741_309989573 309989573_309989084 309989084_1657067339 1657067339_309988225 309988225_2247662465 2247662465_1657067341 1657067341_309971077 309971077_309985025 309985025_309970358 309970358_309970191 309970191_2080740198 2080740198_3207124707 3207124707_309969854 309969854_309981741 309981741_309969575 309969575_309981391 309981391_3224362682 3224362682_4204671698 4204671698_309969280 309969280_4034623519 4034623519_2245347109 2245347109_309969259 309969259_304701495 304701495_2245347134 2245347134_304700727 304700727_304701498 304701498_457407495 457407495_304700685 304700685_5232574433 5232574433_4790942986 4790942986_2256778718 2256778718_210734567 210734567_210734545 210734545_1522834456 1522834456_1522834356 1522834356_1522976990 1522976990_1522834323 1522834323_1522834383 1522834383_1522834451 1522834451_1522834342 1522834342_1522834448 1522834448_1522834478 1522834478_1522834368 1522834368_1522566181 1522566181_304700483 304700483_3205511506 3205511506_3205511507 3205511507_214092423 214092423_214092402 214092402_214092456 214092456_304700568 304700568_31477189 31477189_31477188 31477188_31477187 31477187_31477186 31477186_2940375840 2940375840_370477432 370477432_214122372 214122372_370477489 370477489_31477185 31477185_31477184 31477184_2940375839 2940375839_370477495 370477495_214122180 214122180_214092481 214092481_541122878 541122878_31477183 31477183_214131858 214131858_214131831 214131831_214131808 214131808_299024279 299024279_2621587187 2621587187_2621587189 2621587189_2621587191 2621587191_723973410 723973410_723973409 723973409_723973403 723973403_723973556 723973556_723973555 723973555_723973453 723973453_723973943 723973943_277368211 277368211_723974221 723974221_299023766 299023766_277368210 277368210_277363248 277363248_277363224 277363224_723975301 723975301_723974489 723974489_723974486 723974486_277362806 277362806_723980902 723980902_3394892452 3394892452_277362804 277362804_723976949 723976949_4283908179 4283908179_27736277