<routes><vType accel="4.8" decel="4.4" id="Car0" length="23.2" maxSpeed="113" sigma="0.361347285105" /><vType accel="4.3" decel="4.8" id="Car1" length="24.0" maxSpeed="71" sigma="0.499333303916" /><vType accel="2.0" decel="4.8" id="Car2" length="24.2" maxSpeed="63" sigma="0.211112842827" /><vType accel="3.2" decel="3.4" id="Car3" length="20.7" maxSpeed="73" sigma="0.710859400837" /><vType accel="4.3" decel="5.9" id="Car4" length="21.7" maxSpeed="108" sigma="0.255655852639" /><vType accel="2.2" decel="7.6" id="Car5" length="13.9" maxSpeed="88" sigma="0.658256543326" /><vType accel="2.3" decel="4.9" id="Car6" length="12.4" maxSpeed="96" sigma="0.803236989374" /><vType accel="4.8" decel="2.0" id="Car7" length="18.4" maxSpeed="62" sigma="0.028864110026" /><vType accel="2.6" decel="6.5" id="Car8" length="23.8" maxSpeed="64" sigma="0.398262028263" /><vType accel="3.0" decel="3.4" id="Car9" length="17.5" maxSpeed="72" sigma="0.833937822783" /><vType accel="0.7" decel="3.9" id="Car10" length="13.4" maxSpeed="96" sigma="0.981811129032" /><vType accel="1.6" decel="7.0" id="Car11" length="21.6" maxSpeed="109" sigma="0.636052590873" /><vType accel="1.9" decel="3.7" id="Car12" length="7.1" maxSpeed="86" sigma="0.11485702057" /><vType accel="4.7" decel="7.2" id="Car13" length="6.4" maxSpeed="95" sigma="0.895496788482" /><vType accel="3.5" decel="7.3" id="Car14" length="21.3" maxSpeed="86" sigma="0.355228466143" /><vType accel="4.0" decel="4.4" id="Car15" length="23.2" maxSpeed="98" sigma="0.667844290891" /><vType accel="2.5" decel="3.9" id="Car16" length="9.5" maxSpeed="85" sigma="0.913508140777" /><vType accel="2.9" decel="3.6" id="Car17" length="22.8" maxSpeed="120" sigma="0.384740238194" /><vType accel="3.2" decel="2.0" id="Car18" length="16.1" maxSpeed="60" sigma="0.586937697394" /><vType accel="2.6" decel="5.1" id="Car19" length="10.8" maxSpeed="88" sigma="0.446624687378" /><vType accel="2.6" decel="5.1" id="back_car" length="10.8" maxSpeed="88" sigma="0.446624687378" /><route edges="1928298965_313441047 313441047_313440696 313440696_313254247 313254247_313254248 313254248_313254135 313254135_313254237 313254237_313254107 313254107_313254089 313254089_313140253 313140253_313140004 313140004_313140309 313140309_313140381 313140381_313140108 313140108_670001388 670001388_1622867514 1622867514_1622867512 1622867512_1622867510 1622867510_1622867508 1622867508_1622867506 1622867506_1622867488 1622867488_670001389 670001389_673083756 673083756_313249065 313249065_310001363 310001363_5315879310 5315879310_310001364 310001364_2425472484 2425472484_2425472486 2425472486_2425472481 2425472481_2425472479 2425472479_310001365 310001365_310001366 310001366_310001082 310001082_310001084 310001084_470768105 470768105_4679488612 4679488612_4679488610 4679488610_4679488618 4679488618_1488092594 1488092594_277369834 277369834_1488092590 1488092590_277369882 277369882_4204671720 4204671720_127388698 127388698_4204671719 4204671719_277369881 277369881_604124876 604124876_1488092578 1488092578_4204671692 4204671692_277369879 277369879_277369878 277369878_277369877 277369877_4204671721 4204671721_1488046391 1488046391_1488046410 1488046410_2247591096 2247591096_127390268 127390268_2247672420 2247672420_4679496898 4679496898_2247591101 2247591101_2247672417 2247672417_2247591117 2247591117_876910906 876910906_309984697 309984697_21643741 21643741_309989573 309989573_309989084 309989084_1657067339 1657067339_309988225 309988225_2247662465 2247662465_1657067341 1657067341_309971077 309971077_309985025 309985025_309970358 309970358_309970191 309970191_2080740198 2080740198_3207124707 3207124707_309969854 309969854_309981741 309981741_309969575 309969575_309981391 309981391_3224362682 3224362682_4204671698 4204671698_309969280 309969280_309979013 309979013_4790942634 4790942634_309979105 309979105_4169720285 4169720285_1487967728 1487967728_1487967726 1487967726_1487967725 1487967725_4034623523 4034623523_4034623524 4034623524_4034623525 4034623525_4034623526 4034623526_1522566225 1522566225_1522566189 1522566189_1522566380 1522566380_1522566382 1522566382_1522566389 1522566389_1522566359 1522566359_1522834394 1522834394_1522834395 1522834395_1522834446 1522834446_1522834429 1522834429_1522834316 1522834316_1522834336 1522834336_1522834355 1522834355_31477188 31477188_31477187 31477187_31477186 31477186_2940375840 2940375840_370477432 370477432_214122372 214122372_370477489 370477489_31477185 31477185_31477184 31477184_2940375839 2940375839_370477495 370477495_214122180 214122180_214092481 214092481_541122878 541122878_31477183 31477183_5546311686 5546311686_740374973 740374973_114268737 114268737_299026732 299026732_2567155992 2567155992_541122843 541122843_608962184 608962184_608962183 608962183_608962182 608962182_608962181 608962181_608962176 608962176_2621587163 2621587163_2621587165 2621587165_608962168 608962168_608962167 608962167_561538826 561538826_561538825 561538825_2621587173 2621587173_561538971 561538971_561538970 561538970_277366890 277366890_277366891 277366891_561538974 561538974_561538848 561538848_561538860 561538860_561538859 561538859_561538858 561538858_561538857 561538857_561538850 561538850_561538849 561538849_5406797171 5406797171_1093410314 1093410314_305909619 305909619_305909618 305909618_305909616 305909616_305909615 305909615_305909614 305909614_561538867 561538867_561538869 561538869_561538870 561538870_1093410310 1093410310_1093410311 1093410311_1093410312 1093410312_4698484056 4698484056_561538868 561538868_2384157684 2384157684_906234086 906234086_906234097 906234097_906234089 906234089_906234087 906234087_1192149947 1192149947_906234095 906234095_3067843936 3067843936_827113739 827113739_128874949 128874949_4698523258 4698523258_128874985 128874985_305912836 305912836_2006034699 2006034699_2006038538 2006038538_2006034703 2006034703_2006034701 2006034701_305912839 305912839_128874960 128874960_305913668 305913668_3065030523 3065030523_305913665 305913665_128882436 128882436_305912824 305912824_2176972919 2176972919_305912820 305912820_128882501 128882501_129279518 129279518_1033063213 1033063213_1521014627 1521014627_129279422 129279422_31477171 31477171_1519471011 1519471011_355817578 355817578_355817533 355817533_2684469926 2684469926_1965865394 1965865394_266727401 266727401_1519470963 1519470963_1965865396 1965865396_1965865389 1965865389_1965865392 1965865392_370959804 370959804_151434803 151434803_1965865387 1965865387_151434830 151434830_3311863660 3311863660_2672588668 2672588668_810963146 810963146_384027031 384027031_3823791807 3823791807_493102375 493102375_384027591 384027591_493102372 493102372_384027122 384027122_493102370 493102370_493102368 493102368_384027590 384027590_493102365 493102365_384026989 384026989_151442490 151442490_233247071 233247071_401505827 401505827_2428769531 2428769531_2428766397 2428766397_233247050 233247050_233270770 233270770_385176258 385176258_385176790 385176790_233270786 233270786_2457712013 2457712013_233270800 233270800_233255206 233255206_1480081451 1480081451_233270841 233270841_597633378 597633378_233255272 233255272_361770719 361770719_361770535 361770535_361770819 361770819_361770537 361770537_233255310 233255310_615176178 615176178_615176175 615176175_615176166 615176166_233262762 233262762_302571121 302571121_683138398 683138398_418987991 418987991_302132742 302132742_580090245 580090245_4297530202 4297530202_233262696 233262696_233314946 233314946_233314999 233314999_243645169 243645169_233314776 233314776_2204643315 2204643315_364869016 364869016_233314797 233314797_233314893 233314893_364868868 364868868_233314914 233314914_233314833 233314833_233314809 233314809_4294474619 4294474619_1367589913 1367589913_4294474618 4294474618_1367589915 1367589915_1367589914 1367589914_395285982 395285982_767693486 767693486_767710271 767710271_501019000 501019000_501018995 501018995_767594705 767594705_767594704 767594704_767594703 767594703_371972632 371972632_493873197 493873197_493873198 493873198_566892220 566892220_493873180 493873180_767752593 767752593_371949823 371949823_767671823 767671823_767671820 767671820_34160610 34160610_767670317 767670317_3933098057 3933098057_2766300604 2766300604_34157905 34157905_3933095115 3933095115_319157897 319157897_30287325 30287325_30287324 30287324_319157174 319157174_1985551133 1985551133_3933094374 3933094374_2707985442 2707985442_1985551131 1985551131_319157894 319157894_291210712 291210712_3208518301 3208518301_291210708 291210708_317535760 317535760_1725216810 1725216810_291210792 291210792_3208518289 3208518289_33675682 33675682_3933086388 3933086388_317535746 317535746_1492410147 1492410147_1492410163 1492410163_1492410198 1492410198_1492410214 1492410214_3933086393 3933086393_4005305751 4005305751_775942450 775942450_1900213541 1900213541_774547223 774547223_777771693 777771693_1725216852 1725216852_774546374 774546374_775941673 775941673_774546373 774546373_3933094364 3933094364_775933297 775933297_775946111 775946111_775945930 775945930_775933295 775933295_775933250 775933250_775933327 775933327_775933377 775933377_775933376 775933376_774545099 774545099_2383215095 2383215095_774545122 774545122_777759693 777759693_777696327 777696327_777697599 777697599_777697592 777697592_777697587 777697587_777703071 777703071_777743666 777743666_777703067 777703067_777746939 777746939_777710193 777710193_777721838 777721838_777721819 777721819_777721760 777721760_777721749 777721749_777799136 777799136_777788921 777788921_777788917 777788917_317369542 317369542_317369554 317369554_317369597 317369597_703557084 703557084_777774421 777774421_777788328 777788328_26034627 26034627_3215106497 3215106497_3215191983 3215191983_35354783 35354783_572041912 572041912_259616740 259616740_3394768954 3394768954_767584756 767584756_387153089 387153089_767584755 767584755_30942992 30942992_3215192005 3215192005_3215192008 3215192008_3215192022 3215192022_3215192021 3215192021_332549400 332549400_3215192040 3215192040_332549398 332549398_4551628270 4551628270_306904038 306904038_332549397 332549397_387152995 387152995_3394781929 3394781929_3218227004 3218227004_3218227002 3218227002_3218227000 3218227000_3218226998 3218226998_387152924 387152924_332546101 332546101_3394781930 3394781930_127601472 127601472_702378614 702378614_332549401 332549401_702378648 702378648_702378647 702378647_332544824 332544824_332543902 332543902_3394781452 3394781452_702363904 702363904_130038130 130038130_130038129 130038129_702363903 702363903_130038128 130038128_130038127 130038127_306383379 306383379_702363855 702363855_702363888 702363888_30942253 30942253_702351483 702351483_702351482 702351482_702351481 702351481_130038331 130038331_130038330 130038330_130038296 130038296_130038295 130038295_130038294 130038294_130038293 130038293_130038292 130038292_30942252 30942252_5556315220 5556315220_4793613068 4793613068_4794459457 4794459457_5556316727 5556316727_5556316745 5556316745_4794459456 4794459456_5556315207 5556315207_5556315206 5556315206_4793613067 4793613067_4793613066 4793613066_4793613065 4793613065_5556316823 5556316823_5556316824 5556316824_5556316822 5556316822_5556316813 5556316813_5556316810 5556316810_5556316809 5556316809_5556316808 5556316808_5322615232 5322615232_76459258 76459258_4415760632 4415760632_3285633576 3285633576_2172718107 2172718107_76459296 76459296_3285623814 3285623814_373646060 373646060_373645976 373645976_373645935 373645935_3285622633 3285622633_373643824 373643824_2613010004 2613010004_2613010002 2613010002_373644846 373644846_3285622632 3285622632_583067729 583067729_3285622626 3285622626_75086429 75086429_202673222 202673222_202676493 202676493_1060265093 1060265093_4067315447 4067315447_75086428 75086428_2613010000 2613010000_2613009998 2613009998_4793613049 4793613049_75086426 75086426_295874707 295874707_75086425 75086425_3285622635 3285622635_3285622634 3285622634_202578382 202578382_202578380 202578380_295874836 295874836_3176128935 3176128935_202567088 202567088_122730503 122730503_2612992586 2612992586_2612992587 2612992587_2978466825 2978466825_2612992588 2612992588_583189866 583189866_583189536 583189536_2469612678 2469612678_583188386 583188386_583189160 583189160_3680410387 3680410387_583189157 583189157_583189154 583189154_3680410388 3680410388_3680410384 3680410384_583189151 583189151_583189150 583189150_583189149 583189149_583189144 583189144_583188038 583188038_583185923 583185923_583187147 583187147_583185523 583185523_344812998 344812998_122727218 122727218_583186869 583186869_122727216 122727216_122727215 122727215_583186610 583186610_1080149303 1080149303_2432258105 2432258105_122727214 122727214_2612992585 2612992585_2612992584 2612992584_583186173 583186173_4921454155 4921454155_4921454154 4921454154_4921454159 4921454159_4921454158 4921454158_250007040 250007040_4949987630 4949987630_4680892742 4680892742_4680892741 4680892741_250007757 250007757_250007758 250007758_250007759 250007759_348718400 348718400_4765991953 4765991953_4765991954 4765991954_4765991955 4765991955_4765991956 4765991956_4949987391 4949987391_4765991958 4765991958_4765991940 4765991940_4765991941 4765991941_4765991944 4765991944_4949987404 4949987404_4907288937 4907288937_4949987399 4949987399_4949987625 4949987625_4087489254 4087489254_616525979 616525979_4087489253 4087489253_250291196 250291196_663516316 663516316_4903344787 4903344787_32476610 32476610_581229787 581229787_321530548 321530548_2097588139 2097588139_2299094544 2299094544_2299094545 2299094545_321531208 321531208_321531207 321531207_4997064517 4997064517_321531219 321531219_616526757 616526757_4997064923 4997064923_616526762 616526762_616526754 616526754_1312618019 1312618019_4997064512 4997064512_4997064513 4997064513_4789353355 4789353355_312963564 312963564_616526780 616526780_616526781 616526781_616526782 616526782_312963566 312963566_321531266 321531266_320492346 320492346_320492154 320492154_3783330868 3783330868_320492315 320492315_320492316 320492316_122721950 122721950_122721949 122721949_320480780 320480780_4428399220 4428399220_320480232 320480232_3879092525 3879092525_3189540981 3189540981_320488136 320488136_320487375 320487375_250287939 250287939_320487333 320487333_4740979694 4740979694_320487319 320487319_320487225 320487225_320486447 320486447_320487083 320487083_320486971 320486971_320486880 320486880_2102862967 2102862967_320488417 320488417_2102862928 2102862928_320488418 320488418_320490290 320490290_2268149481 2268149481_320489997 320489997_2268149480 2268149480_320489932 320489932_320489627 320489627_320489065 320489065_320489585 320489585_4817416052 4817416052_4817416050 4817416050_4817416060 4817416060_4817416061 4817416061_4817416059 4817416059_4817416058 4817416058_4817416057 4817416057_4817416056 4817416056_4817416055 4817416055_4817416054 4817416054_36022329 36022329_2299087311 2299087311_370708380 370708380_370708381 370708381_320852621 320852621_1833869065 1833869065_2612216102 2612216102_370708433 " id="route0" /><route edges="1928298965_313441110 313441110_313440691 313440691_313441737 313441737_313254240 313254240_313139758 313139758_1928315581 1928315581_1928315592 1928315592_1928315579 1928315579_1928315589 1928315589_1928315553 1928315553_1928315555 1928315555_1928315558 1928315558_1928315573 1928315573_1928315552 1928315552_1928315586 1928315586_313139789 313139789_313254109 313254109_313139805 313139805_313254077 313254077_313139816 313139816_313441837 313441837_313139868 313139868_313139905 313139905_2381887337 2381887337_2381887352 2381887352_2245992501 2245992501_313139857 313139857_3494863650 3494863650_313139953 313139953_2381887355 2381887355_462844528 462844528_462844665 462844665_462844657 462844657_462850492 462850492_304705458 304705458_462849962 462849962_4326585010 4326585010_4326585009 4326585009_29936554 29936554_4326585008 4326585008_4142788490 4142788490_311901127 311901127_29960343 29960343_2245577417 2245577417_304705278 304705278_2245788895 2245788895_304705277 304705277_304705287 304705287_304705239 304705239_304705238 304705238_304705232 304705232_304704691 304704691_304704678 304704678_304704624 304704624_304704448 304704448_1800095332 1800095332_1800095333 1800095333_304718042 304718042_30948256 30948256_304701321 304701321_304715532 304715532_304701167 304701167_304715731 304715731_304701113 304701113_304701069 304701069_304715909 304715909_304715908 304715908_598491784 598491784_598491783 598491783_304715907 304715907_304715905 304715905_304716663 304716663_304715900 304715900_304712991 304712991_518304506 518304506_304712990 304712990_304712989 304712989_304712988 304712988_304712987 304712987_518304340 518304340_577063526 577063526_577063523 577063523_577063520 577063520_518304220 518304220_518304221 518304221_518304223 518304223_518304224 518304224_518304225 518304225_577063512 577063512_304712522 304712522_2381255964 2381255964_4918356710 4918356710_251477159 251477159_2381255973 2381255973_2381255967 2381255967_2381255969 2381255969_2381255972 2381255972_3205504680 3205504680_2381255957 2381255957_214110546 214110546_2242878873 2242878873_2241810964 2241810964_214118034 214118034_2397152883 2397152883_2397152889 2397152889_2397152887 2397152887_214117961 214117961_214117740 214117740_1657117445 1657117445_2242869381 2242869381_214099039 214099039_1533481705 1533481705_214117760 214117760_30221048 30221048_277362814 277362814_4283908187 4283908187_2241696406 2241696406_277362811 277362811_1546958636 1546958636_1546958634 1546958634_2241696401 2241696401_2978801845 2978801845_2978801848 2978801848_2978801846 2978801846_2978801847 2978801847_277362808 277362808_723980903 723980903_277362807 277362807_277362806 277362806_723980902 723980902_3394892452 3394892452_277362804 277362804_723976949 723976949_4283908179 4283908179_277362770 277362770_30948162 30948162_30948116 30948116_2013560660 2013560660_250479836 250479836_250480609 250480609_250480641 250480641_30947985 30947985_250480649 250480649_30947983 30947983_705744124 705744124_250480655 250480655_30948020 30948020_250480669 250480669_250480666 250480666_2237521759 2237521759_30947901 30947901_224765801 224765801_129952492 129952492_355818807 355818807_129953571 129953571_4283908156 4283908156_420022665 420022665_420022688 420022688_746428191 746428191_746428194 746428194_129952494 129952494_2967053348 2967053348_355818845 355818845_3427813818 3427813818_129952493 129952493_224762698 224762698_746341185 746341185_355819027 355819027_224763560 224763560_224757682 224757682_224761673 224761673_224757641 224757641_224761617 224761617_224738476 224738476_222958329 222958329_248969196 248969196_222957430 222957430_223007282 223007282_493051207 493051207_224738431 224738431_222987367 222987367_356453318 356453318_3216954877 3216954877_493051210 493051210_356453558 356453558_301548221 301548221_301548220 301548220_222975383 222975383_332152166 332152166_4936954236 4936954236_301548226 301548226_2399230968 2399230968_55861404 55861404_4297530227 4297530227_2213857171 2213857171_302135272 302135272_224750459 224750459_224750410 224750410_364846732 364846732_2213858149 2213858149_372992239 372992239_233555460 233555460_628761345 628761345_2368035914 2368035914_269335260 269335260_30945575 30945575_3419339847 3419339847_3937111753 3937111753_224750232 224750232_30287465 30287465_4283908117 4283908117_4283908116 4283908116_3419344105 3419344105_2189377523 2189377523_30945324 30945324_233274930 233274930_2096319043 2096319043_477079437 477079437_477079436 477079436_3937113664 3937113664_767665017 767665017_767587081 767587081_2384091376 2384091376_2384091375 2384091375_767584894 767584894_767584876 767584876_2384091386 2384091386_4000075642 4000075642_767586827 767586827_767586829 767586829_588958335 588958335_588958327 588958327_588958324 588958324_588958322 588958322_588958319 588958319_588958317 588958317_588958314 588958314_588958236 588958236_277089952 277089952_767583050 767583050_26034664 26034664_255061161 255061161_255061151 255061151_255061155 255061155_4326568607 4326568607_4326568606 4326568606_589403294 589403294_2291073957 2291073957_767584383 767584383_2181275344 2181275344_3367904416 3367904416_2841675044 2841675044_2181275328 2181275328_2841675047 2841675047_2181275335 2181275335_2181275340 2181275340_3367904414 3367904414_2841675052 2841675052_2181275337 2181275337_2181275331 2181275331_2841675059 2841675059_2383211191 2383211191_2383211194 2383211194_2383211198 2383211198_2383211199 2383211199_2383211200 2383211200_3367904421 3367904421_2841675061 2841675061_2841675060 2841675060_2291073974 2291073974_2291073975 2291073975_2291073976 2291073976_3394697026 3394697026_4017279091 4017279091_2190483595 2190483595_2190483582 2190483582_2190483584 2190483584_316414092 316414092_316413655 316413655_227508496 227508496_2020813887 2020813887_2020813893 2020813893_703550857 703550857_319159694 319159694_33085559 33085559_33085575 33085575_2291073989 2291073989_2291073990 2291073990_2291073991 2291073991_2291073992 2291073992_2189145388 2189145388_4520380517 4520380517_3543024078 3543024078_3306881184 3306881184_387266371 387266371_387266373 387266373_387266376 387266376_4952478831 4952478831_387266443 387266443_488879346 488879346_4952478826 4952478826_4952478814 4952478814_387266437 387266437_572044631 572044631_2185303492 2185303492_4952478819 4952478819_2185303491 2185303491_387266344 387266344_387266341 387266341_2185303489 2185303489_387266340 387266340_2185303488 2185303488_4957706244 4957706244_387266338 387266338_259616751 259616751_30942994 30942994_289602599 289602599_289602608 289602608_332544910 332544910_3394738567 3394738567_332544858 332544858_332544866 332544866_3394730431 3394730431_3394730433 3394730433_3394730432 3394730432_1492131968 1492131968_1492131937 1492131937_296027713 296027713_1492131952 1492131952_296027706 296027706_305106971 305106971_3970811103 3970811103_3970811102 3970811102_3970811099 3970811099_3970811100 3970811100_3970811098 3970811098_3313036364 3313036364_3313036363 3313036363_26680088 26680088_26680087 26680087_1132070461 1132070461_26680084 26680084_1132070452 1132070452_571460260 571460260_306961201 306961201_571460262 571460262_560997595 560997595_306961195 306961195_306961188 306961188_400753614 400753614_1224872745 1224872745_1224872743 1224872743_1224872751 1224872751_400753610 400753610_400753604 400753604_400753602 400753602_400753599 400753599_400753596 400753596_400753594 400753594_400753591 400753591_580001776 580001776_400753574 400753574_400753571 400753571_400753567 400753567_401416162 401416162_202759186 202759186_401416160 401416160_401416164 401416164_401416153 401416153_401416155 401416155_401416145 401416145_702376794 702376794_702376767 702376767_702376765 702376765_702376763 702376763_702376761 702376761_702376559 702376559_702376558 702376558_702376557 702376557_702376556 702376556_702376555 702376555_702376536 702376536_702376535 702376535_702376534 702376534_702376533 702376533_702376532 702376532_702376531 702376531_702376530 702376530_702376571 702376571_702376528 702376528_702376527 702376527_702376526 702376526_702376525 702376525_702376524 702376524_702376523 702376523_702376522 702376522_702376521 702376521_702376520 702376520_702376519 702376519_702376518 702376518_702376517 702376517_702376516 702376516_702376515 702376515_702376514 702376514_702376513 702376513_702376512 702376512_702376511 702376511_702376470 702376470_3555802212 3555802212_3555802228 3555802228_3555802214 3555802214_3555802225 3555802225_3555802208 3555802208_3555802204 3555802204_3555802209 3555802209_3555802233 3555802233_3555802203 3555802203_3555802211 3555802211_3555802218 3555802218_702351900 702351900_702351899 702351899_3790949314 3790949314_3790949312 3790949312_3790949313 3790949313_702351916 702351916_3790949306 3790949306_1112411405 1112411405_702351321 702351321_1112411395 1112411395_1112411361 1112411361_1112411374 1112411374_1112411425 1112411425_1112411428 1112411428_1112411443 1112411443_1112411447 1112411447_30942488 30942488_1112411409 1112411409_1112411419 1112411419_1112411384 1112411384_1112411391 1112411391_3790949324 3790949324_1112411451 1112411451_1112411360 1112411360_1112411424 1112411424_1112411441 1112411441_1112411377 1112411377_1112411372 1112411372_130043040 130043040_3326880159 3326880159_3326880156 3326880156_3326880153 3326880153_130042866 130042866_202520404 202520404_2401378847 2401378847_2401378846 2401378846_1112411439 1112411439_1112411392 1112411392_1112411411 1112411411_1112411407 1112411407_1112411379 1112411379_1112411390 1112411390_1112411445 1112411445_1112411450 1112411450_1112411427 1112411427_130044430 130044430_130043644 130043644_3790949326 3790949326_3790949327 3790949327_3790949328 3790949328_3790949329 3790949329_3790949330 3790949330_3790949331 3790949331_583197079 583197079_622959760 622959760_130042127 130042127_5536422989 5536422989_622959751 622959751_249996725 249996725_30942237 30942237_314470621 314470621_30942236 30942236_1055879518 1055879518_1055879468 1055879468_30940769 30940769_1055879458 1055879458_1055841931 1055841931_2382446760 2382446760_1055841933 1055841933_622950936 622950936_4413196759 4413196759_4413196757 4413196757_1277943040 1277943040_282416060 282416060_1277984655 1277984655_1277943037 1277943037_622950875 622950875_1277984552 1277984552_1277984684 1277984684_1277984610 1277984610_1277984706 1277984706_1277984670 1277984670_323098904 323098904_2471245050 2471245050_1277984720 1277984720_1277984635 1277984635_75105959 75105959_1277984688 1277984688_4805006025 4805006025_4805005617 4805005617_4805005615 4805005615_4805005620 4805005620_4805006021 4805006021_4805006022 4805006022_4533205186 4533205186_4533205185 4533205185_1277943056 1277943056_1277945619 1277945619_1277945630 1277945630_1277945614 1277945614_1277945646 1277945646_1277945628 1277945628_1277945656 1277945656_1277945663 1277945663_1277945680 1277945680_1277945623 1277945623_1277945612 1277945612_1277945635 1277945635_1277946732 1277946732_671323571 671323571_671323466 671323466_3215374642 3215374642_289325563 289325563_2524215202 2524215202_2524215196 2524215196_2524215195 2524215195_671319695 671319695_4443156867 4443156867_833664061 833664061_671319673 671319673_671319670 671319670_3215374639 3215374639_671319664 671319664_671319660 671319660_832409142 832409142_832391719 832391719_253752874 253752874_1833142699 1833142699_36022342 36022342_3359255433 3359255433_3359255435 3359255435_2268148328 2268148328_320846340 320846340_320846339 320846339_320847097 320847097_2268148331 2268148331_320846338 320846338_320846337 320846337_320846726 320846726_5158239514 5158239514_320846479 320846479_2268148333 2268148333_3855648786 3855648786_36022336 36022336_36022335 36022335_253546237 253546237_36022334 36022334_2100795445 2100795445_3855646546 3855646546_3855646547 3855646547_3855646545 3855646545_250291504 250291504_2100795462 2100795462_253546192 253546192_250291418 250291418_320852504 320852504_370708114 370708114_370708264 370708264_370708343 370708343_370708381 370708381_320852621 320852621_1833869065 1833869065_2612216102 2612216102_370708433 " id="route1" /><route edges="1928298965_313441110 313441110_313440691 313440691_313441737 313441737_313254240 313254240_313139758 313139758_1928315581 1928315581_1928315592 1928315592_1928315579 1928315579_1928315589 1928315589_1928315553 1928315553_1928315555 1928315555_1928315558 1928315558_1928315573 1928315573_1928315552 1928315552_1928315586 1928315586_313139789 313139789_313254109 313254109_313139805 313139805_313254077 313254077_313139816 313139816_313441837 313441837_313139868 313139868_313139905 313139905_313139906 313139906_313139853 313139853_313139907 313139907_313139865 313139865_313441842 313441842_313139995 313139995_313441811 313441811_530330092 530330092_530330000 530330000_604125894 604125894_462851746 462851746_462851751 462851751_462851756 462851756_462851759 462851759_462851765 462851765_462849005 462849005_462849009 462849009_2245992551 2245992551_462849962 462849962_4326585010 4326585010_4326585009 4326585009_29936554 29936554_4326585008 4326585008_4142788490 4142788490_311901127 311901127_29960343 29960343_2245577417 2245577417_304705278 304705278_304705227 304705227_309975117 309975117_2815396513 2815396513_2245577418 2245577418_304705215 304705215_2815396505 2815396505_309975281 309975281_309975083 309975083_304704681 304704681_2245577415 2245577415_309975063 309975063_29960342 29960342_304704449 304704449_309972751 309972751_2245577416 2245577416_304704443 304704443_2938998243 2938998243_304704440 304704440_4288151643 4288151643_2245545092 2245545092_304704441 304704441_30948250 30948250_598493286 598493286_598493285 598493285_370482784 370482784_598493284 598493284_370482564 370482564_304700985 304700985_304700975 304700975_304700957 304700957_304700956 304700956_304700952 304700952_304700948 304700948_304700923 304700923_304700913 304700913_304700934 304700934_304700886 304700886_518303983 518303983_304700786 304700786_518303744 518303744_518296937 518296937_518303774 518303774_577063508 577063508_21643697 21643697_304700581 304700581_2370318505 2370318505_344806937 344806937_344806935 344806935_30385374 30385374_4169720801 4169720801_4169720800 4169720800_2241788901 2241788901_4169720797 4169720797_4169720796 4169720796_2241798888 2241798888_214118052 214118052_4211625372 4211625372_3498527026 3498527026_214099039 214099039_1533481705 1533481705_214117760 214117760_30221048 30221048_277362814 277362814_4283908187 4283908187_2241696406 2241696406_277362811 277362811_1546958636 1546958636_1546958634 1546958634_2241696401 2241696401_2978801845 2978801845_2978801848 2978801848_2978801846 2978801846_2978801847 2978801847_277362808 277362808_723980903 723980903_277362807 277362807_277362806 277362806_4283908181 4283908181_30221043 30221043_4283908183 4283908183_277363029 277363029_3394892455 3394892455_610682598 610682598_2481930756 2481930756_610682568 610682568_1657117469 1657117469_610682578 610682578_4