<edges><edge from="1928298965" id="1928298965_313441047" to="313441047" /><edge from="313441047" id="313441047_313440696" to="313440696" /><edge from="313440696" id="313440696_313254247" to="313254247" /><edge from="313254247" id="313254247_313254248" to="313254248" /><edge from="313254248" id="313254248_313254135" to="313254135" /><edge from="313254135" id="313254135_313254237" to="313254237" /><edge from="313254237" id="313254237_313254107" to="313254107" /><edge from="313254107" id="313254107_313254089" to="313254089" /><edge from="313254089" id="313254089_313140253" to="313140253" /><edge from="313140253" id="313140253_313140255" to="313140255" /><edge from="313140255" id="313140255_313140297" to="313140297" /><edge from="313140297" id="313140297_875512291" to="875512291" /><edge from="875512291" id="875512291_875512290" to="875512290" /><edge from="875512290" id="875512290_673083767" to="673083767" /><edge from="673083767" id="673083767_673083766" to="673083766" /><edge from="673083766" id="673083766_673083764" to="673083764" /><edge from="673083764" id="673083764_313140107" to="313140107" /><edge from="313140107" id="313140107_313140045" to="313140045" /><edge from="313140045" id="313140045_313248462" to="313248462" /><edge from="313248462" id="313248462_21643809" to="21643809" /><edge from="21643809" id="21643809_313248453" to="313248453" /><edge from="313248453" id="313248453_462859358" to="462859358" /><edge from="462859358" id="462859358_462868395" to="462868395" /><edge from="462868395" id="462868395_311901574" to="311901574" /><edge from="311901574" id="311901574_310001311" to="310001311" /><edge from="310001311" id="310001311_4695022397" to="4695022397" /><edge from="4695022397" id="4695022397_4695022177" to="4695022177" /><edge from="4695022177" id="4695022177_4695022400" to="4695022400" /><edge from="4695022400" id="4695022400_310001315" to="310001315" /><edge from="310001315" id="310001315_4695022131" to="4695022131" /><edge from="4695022131" id="4695022131_4695022403" to="4695022403" /><edge from="4695022403" id="4695022403_310001313" to="310001313" /><edge from="310001313" id="310001313_310001304" to="310001304" /><edge from="310001304" id="310001304_309977100" to="309977100" /><edge from="309977100" id="309977100_2123710642" to="2123710642" /><edge from="2123710642" id="2123710642_370482122" to="370482122" /><edge from="370482122" id="370482122_2123710629" to="2123710629" /><edge from="2123710629" id="2123710629_370482116" to="370482116" /><edge from="370482116" id="370482116_2123710640" to="2123710640" /><edge from="2123710640" id="2123710640_370482121" to="370482121" /><edge from="370482121" id="370482121_2123710630" to="2123710630" /><edge from="2123710630" id="2123710630_370482117" to="370482117" /><edge from="370482117" id="370482117_309977235" to="309977235" /><edge from="309977235" id="309977235_309977505" to="309977505" /><edge from="309977505" id="309977505_309977300" to="309977300" /><edge from="309977300" id="309977300_309977428" to="309977428" /><edge from="309977428" id="309977428_309977132" to="309977132" /><edge from="309977132" id="309977132_263991606" to="263991606" /><edge from="263991606" id="263991606_4679496738" to="4679496738" /><edge from="4679496738" id="4679496738_4679496737" to="4679496737" /><edge from="4679496737" id="4679496737_4679496733" to="4679496733" /><edge from="4679496733" id="4679496733_1657066780" to="1657066780" /><edge from="1657066780" id="1657066780_1657066700" to="1657066700" /><edge from="1657066700" id="1657066700_1657066749" to="1657066749" /><edge from="1657066749" id="1657066749_1657066765" to="1657066765" /><edge from="1657066765" id="1657066765_1657066770" to="1657066770" /><edge from="1657066770" id="1657066770_1657066724" to="1657066724" /><edge from="1657066724" id="1657066724_4679496786" to="4679496786" /><edge from="4679496786" id="4679496786_1657066694" to="1657066694" /><edge from="1657066694" id="1657066694_1657066688" to="1657066688" /><edge from="1657066688" id="1657066688_1657066708" to="1657066708" /><edge from="1657066708" id="1657066708_4679496784" to="4679496784" /><edge from="4679496784" id="4679496784_5300044889" to="5300044889" /><edge from="5300044889" id="5300044889_5300044906" to="5300044906" /><edge from="5300044906" id="5300044906_5300044907" to="5300044907" /><edge from="5300044907" id="5300044907_5300044908" to="5300044908" /><edge from="5300044908" id="5300044908_5300044909" to="5300044909" /><edge from="5300044909" id="5300044909_995942509" to="995942509" /><edge from="995942509" id="995942509_995942483" to="995942483" /><edge from="995942483" id="995942483_995942493" to="995942493" /><edge from="995942493" id="995942493_4679496892" to="4679496892" /><edge from="4679496892" id="4679496892_4679496893" to="4679496893" /><edge from="4679496893" id="4679496893_4679496894" to="4679496894" /><edge from="4679496894" id="4679496894_4679496895" to="4679496895" /><edge from="4679496895" id="4679496895_4679496896" to="4679496896" /><edge from="4679496896" id="4679496896_4679496897" to="4679496897" /><edge from="4679496897" id="4679496897_4679496898" to="4679496898" /><edge from="4679496898" id="4679496898_2247591101" to="2247591101" /><edge from="2247591101" id="2247591101_2247672417" to="2247672417" /><edge from="2247672417" id="2247672417_2247591117" to="2247591117" /><edge from="2247591117" id="2247591117_876910906" to="876910906" /><edge from="876910906" id="876910906_309984697" to="309984697" /><edge from="309984697" id="309984697_21643741" to="21643741" /><edge from="21643741" id="21643741_309989573" to="309989573" /><edge from="309989573" id="309989573_309989084" to="309989084" /><edge from="309989084" id="309989084_1657067339" to="1657067339" /><edge from="1657067339" id="1657067339_309988225" to="309988225" /><edge from="309988225" id="309988225_2247662465" to="2247662465" /><edge from="2247662465" id="2247662465_1657067341" to="1657067341" /><edge from="1657067341" id="1657067341_309971077" to="309971077" /><edge from="309971077" id="309971077_309985025" to="309985025" /><edge from="309985025" id="309985025_309970358" to="309970358" /><edge from="309970358" id="309970358_309970191" to="309970191" /><edge from="309970191" id="309970191_2080740198" to="2080740198" /><edge from="2080740198" id="2080740198_2247591105" to="2247591105" /><edge from="2247591105" id="2247591105_2247591103" to="2247591103" /><edge from="2247591103" id="2247591103_2247591118" to="2247591118" /><edge from="2247591118" id="2247591118_4802879116" to="4802879116" /><edge from="4802879116" id="4802879116_4802879113" to="4802879113" /><edge from="4802879113" id="4802879113_4802879112" to="4802879112" /><edge from="4802879112" id="4802879112_304701810" to="304701810" /><edge from="304701810" id="304701810_3071691488" to="3071691488" /><edge from="3071691488" id="3071691488_309969348" to="309969348" /><edge from="309969348" id="309969348_309969259" to="309969259" /><edge from="309969259" id="309969259_304701495" to="304701495" /><edge from="304701495" id="304701495_2245347134" to="2245347134" /><edge from="2245347134" id="2245347134_304700727" to="304700727" /><edge from="304700727" id="304700727_304701498" to="304701498" /><edge from="304701498" id="304701498_457407495" to="457407495" /><edge from="457407495" id="457407495_304700685" to="304700685" /><edge from="304700685" id="304700685_5232574433" to="5232574433" /><edge from="5232574433" id="5232574433_4790942986" to="4790942986" /><edge from="4790942986" id="4790942986_4790942985" to="4790942985" /><edge from="4790942985" id="4790942985_1700619562" to="1700619562" /><edge from="1700619562" id="1700619562_210734545" to="210734545" /><edge from="210734545" id="210734545_1522834456" to="1522834456" /><edge from="1522834456" id="1522834456_1522834356" to="1522834356" /><edge from="1522834356" id="1522834356_1522976990" to="1522976990" /><edge from="1522976990" id="1522976990_1522834323" to="1522834323" /><edge from="1522834323" id="1522834323_1522834449" to="1522834449" /><edge from="1522834449" id="1522834449_1522834345" to="1522834345" /><edge from="1522834345" id="1522834345_1522834377" to="1522834377" /><edge from="1522834377" id="1522834377_1522834355" to="1522834355" /><edge from="1522834355" id="1522834355_31477188" to="31477188" /><edge from="31477188" id="31477188_31477187" to="31477187" /><edge from="31477187" id="31477187_31477186" to="31477186" /><edge from="31477186" id="31477186_2940375840" to="2940375840" /><edge from="2940375840" id="2940375840_370477432" to="370477432" /><edge from="370477432" id="370477432_214122372" to="214122372" /><edge from="214122372" id="214122372_370477489" to="370477489" /><edge from="370477489" id="370477489_31477185" to="31477185" /><edge from="31477185" id="31477185_31477184" to="31477184" /><edge from="31477184" id="31477184_2940375839" to="2940375839" /><edge from="2940375839" id="2940375839_370477495" to="370477495" /><edge from="370477495" id="370477495_214122180" to="214122180" /><edge from="214122180" id="214122180_214092481" to="214092481" /><edge from="214092481" id="214092481_214092477" to="214092477" /><edge from="214092477" id="214092477_2421353385" to="2421353385" /><edge from="2421353385" id="2421353385_214124448" to="214124448" /><edge from="214124448" id="214124448_2176972920" to="2176972920" /><edge from="2176972920" id="2176972920_2421353392" to="2421353392" /><edge from="2421353392" id="2421353392_2421353383" to="2421353383" /><edge from="2421353383" id="2421353383_299024279" to="299024279" /><edge from="299024279" id="299024279_277368256" to="277368256" /><edge from="277368256" id="277368256_277368255" to="277368255" /><edge from="277368255" id="277368255_2621587175" to="2621587175" /><edge from="2621587175" id="2621587175_299024277" to="299024277" /><edge from="299024277" id="299024277_277368254" to="277368254" /><edge from="277368254" id="277368254_277368253" to="277368253" /><edge from="277368253" id="277368253_277368252" to="277368252" /><edge from="277368252" id="277368252_277368251" to="277368251" /><edge from="277368251" id="277368251_277368222" to="277368222" /><edge from="277368222" id="277368222_723971538" to="723971538" /><edge from="723971538" id="723971538_277368223" to="277368223" /><edge from="277368223" id="277368223_277368224" to="277368224" /><edge from="277368224" id="277368224_277368225" to="277368225" /><edge from="277368225" id="277368225_277368226" to="277368226" /><edge from="277368226" id="277368226_277368227" to="277368227" /><edge from="277368227" id="277368227_723970899" to="723970899" /><edge from="723970899" id="723970899_277368228" to="277368228" /><edge from="277368228" id="277368228_723970902" to="723970902" /><edge from="723970902" id="723970902_277368229" to="277368229" /><edge from="277368229" id="277368229_723970906" to="723970906" /><edge from="723970906" id="723970906_277368230" to="277368230" /><edge from="277368230" id="277368230_277367197" to="277367197" /><edge from="277367197" id="277367197_723970757" to="723970757" /><edge from="723970757" id="723970757_1093410280" to="1093410280" /><edge from="1093410280" id="1093410280_277367198" to="277367198" /><edge from="277367198" id="277367198_723970759" to="723970759" /><edge from="723970759" id="723970759_277367199" to="277367199" /><edge from="277367199" id="277367199_723970762" to="723970762" /><edge from="723970762" id="723970762_723970764" to="723970764" /><edge from="723970764" id="723970764_277367200" to="277367200" /><edge from="277367200" id="277367200_277367201" to="277367201" /><edge from="277367201" id="277367201_723970767" to="723970767" /><edge from="723970767" id="723970767_723970768" to="723970768" /><edge from="723970768" id="723970768_277367202" to="277367202" /><edge from="277367202" id="277367202_1093410277" to="1093410277" /><edge from="1093410277" id="1093410277_277367203" to="277367203" /><edge from="277367203" id="277367203_723970374" to="723970374" /><edge from="723970374" id="723970374_277367204" to="277367204" /><edge from="277367204" id="277367204_723970429" to="723970429" /><edge from="723970429" id="723970429_723970430" to="723970430" /><edge from="723970430" id="723970430_277367205" to="277367205" /><edge from="277367205" id="277367205_277367206" to="277367206" /><edge from="277367206" id="277367206_277367208" to="277367208" /><edge from="277367208" id="277367208_277367211" to="277367211" /><edge from="277367211" id="277367211_723969549" to="723969549" /><edge from="723969549" id="723969549_277367212" to="277367212" /><edge from="277367212" id="277367212_55846718" to="55846718" /><edge from="55846718" id="55846718_1986325609" to="1986325609" /><edge from="1986325609" id="1986325609_3730054579" to="3730054579" /><edge from="3730054579" id="3730054579_2481930364" to="2481930364" /><edge from="2481930364" id="2481930364_2481930362" to="2481930362" /><edge from="2481930362" id="2481930362_1986325611" to="1986325611" /><edge from="1986325611" id="1986325611_1982297474" to="1982297474" /><edge from="1982297474" id="1982297474_3427761887" to="3427761887" /><edge from="3427761887" id="3427761887_781118652" to="781118652" /><edge from="781118652" id="781118652_583473687" to="583473687" /><edge from="583473687" id="583473687_2481930530" to="2481930530" /><edge from="2481930530" id="2481930530_781120729" to="781120729" /><edge from="781120729" id="781120729_30287594" to="30287594" /><edge from="30287594" id="30287594_3830161454" to="3830161454" /><edge from="3830161454" id="3830161454_129291097" to="129291097" /><edge from="129291097" id="129291097_129291065" to="129291065" /><edge from="129291065" id="129291065_129288610" to="129288610" /><edge from="129288610" id="129288610_493051265" to="493051265" /><edge from="493051265" id="493051265_224761654" to="224761654" /><edge from="224761654" id="224761654_2755279435" to="2755279435" /><edge from="2755279435" id="2755279435_224761795" to="224761795" /><edge from="224761795" id="224761795_224757641" to="224757641" /><edge from="224757641" id="224757641_224761617" to="224761617" /><edge from="224761617" id="224761617_224738476" to="224738476" /><edge from="224738476" id="224738476_222958329" to="222958329" /><edge from="222958329" id="222958329_248969196" to="248969196" /><edge from="248969196" id="248969196_222957430" to="222957430" /><edge from="222957430" id="222957430_223007282" to="223007282" /><edge from="223007282" id="223007282_493051207" to="493051207" /><edge from="493051207" id="493051207_224738431" to="224738431" /><edge from="224738431" id="224738431_222987367" to="222987367" /><edge from="222987367" id="222987367_356449457" to="356449457" /><edge from="356449457" id="356449457_493051212" to="493051212" /><edge from="493051212" id="493051212_301548221" to="301548221" /><edge from="301548221" id="301548221_301548220" to="301548220" /><edge from="301548220" id="301548220_717123684" to="717123684" /><edge from="717123684" id="717123684_301548223" to="301548223" /><edge from="301548223" id="301548223_4936954236" to="4936954236" /><edge from="4936954236" id="4936954236_332152166" to="332152166" /><edge from="332152166" id="332152166_3775020762" to="3775020762" /><edge from="3775020762" id="3775020762_332152172" to="332152172" /><edge from="332152172" id="332152172_4936948366" to="4936948366" /><edge from="4936948366" id="4936948366_4936948369" to="4936948369" /><edge from="4936948369" id="4936948369_4936948368" to="4936948368" /><edge from="4936948368" id="4936948368_4936948367" to="4936948367" /><edge from="4936948367" id="4936948367_241807173" to="241807173" /><edge from="241807173" id="241807173_3281073163" to="3281073163" /><edge from="3281073163" id="3281073163_30220702" to="30220702" /><edge from="30220702" id="30220702_224750434" to="224750434" /><edge from="224750434" id="224750434_224750388" to="224750388" /><edge from="224750388" id="224750388_2358071077" to="2358071077" /><edge from="2358071077" id="2358071077_628761345" to="628761345" /><edge from="628761345" id="628761345_2368035914" to="2368035914" /><edge from="2368035914" id="2368035914_269335260" to="269335260" /><edge from="269335260" id="269335260_30945575" to="30945575" /><edge from="30945575" id="30945575_3419339847" to="3419339847" /><edge from="3419339847" id="3419339847_3937111753" to="3937111753" /><edge from="3937111753" id="3937111753_224750232" to="224750232" /><edge from="224750232" id="224750232_30287465" to="30287465" /><edge from="30287465" id="30287465_3419344120" to="3419344120" /><edge from="3419344120" id="3419344120_3419344115" to="3419344115" /><edge from="3419344115" id="3419344115_4283908115" to="4283908115" /><edge from="4283908115" id="4283908115_2189358931" to="2189358931" /><edge from="2189358931" id="2189358931_2318333325" to="2318333325" /><edge from="2318333325" id="2318333325_2189358929" to="2189358929" /><edge from="2189358929" id="2189358929_2189358901" to="2189358901" /><edge from="2189358901" id="2189358901_4297530214" to="4297530214" /><edge from="4297530214" id="4297530214_30287464" to="30287464" /><edge from="30287464" id="30287464_4297530210" to="4297530210" /><edge from="4297530210" id="4297530210_652430413" to="652430413" /><edge from="652430413" id="652430413_233275077" to="233275077" /><edge from="233275077" id="233275077_652430415" to="652430415" /><edge from="652430415" id="652430415_233314824" to="233314824" /><edge from="233314824" id="233314824_4294474621" to="4294474621" /><edge from="4294474621" id="4294474621_2200514713" to="2200514713" /><edge from="2200514713" id="2200514713_2797986652" to="2797986652" /><edge from="2797986652" id="2797986652_4294474620" to="4294474620" /><edge from="4294474620" id="4294474620_2797986650" to="2797986650" /><edge from="2797986650" id="2797986650_4294474622" to="4294474622" /><edge from="4294474622" id="4294474622_2797986651" to="2797986651" /><edge from="2797986651" id="2797986651_2200514710" to="2200514710" /><edge from="2200514710" id="2200514710_501027469" to="501027469" /><edge from="501027469" id="501027469_767658128" to="767658128" /><edge from="767658128" id="767658128_767658367" to="767658367" /><edge from="767658367" id="767658367_767584931" to="767584931" /><edge from="767584931" id="767584931_767659043" to="767659043" /><edge from="767659043" id="767659043_767659045" to="767659045" /><edge from="767659045" id="767659045_767667492" to="767667492" /><edge from="767667492" id="767667492_767667831" to="767667831" /><edge from="767667831" id="767667831_767667826" to="767667826" /><edge from="767667826" id="767667826_501027474" to="501027474" /><edge from="501027474" id="501027474_767584716" to="767584716" /><edge from="767584716" id="767584716_277089909" to="277089909" /><edge from="277089909" id="277089909_277089910" to="277089910" /><edge from="277089910" id="277089910_1691676483" to="1691676483" /><edge from="1691676483" id="1691676483_3933095111" to="3933095111" /><edge from="3933095111" id="3933095111_2181275336" to="2181275336" /><edge from="2181275336" id="2181275336_2841675040" to="2841675040" /><edge from="2841675040" id="2841675040_767584383" to="767584383" /><edge from="767584383" id="767584383_2181275344" to="2181275344" /><edge from="2181275344" id="2181275344_3367904416" to="3367904416" /><edge from="3367904416" id="3367904416_2841675044" to="2841675044" /><edge from="2841675044" id="2841675044_2181275328" to="2181275328" /><edge from="2181275328" id="2181275328_2841675047" to="2841675047" /><edge from="2841675047" id="2841675047_2181275335" to="2181275335" /><edge from="2181275335" id="2181275335_3367904399" to="3367904399" /><edge from="3367904399" id="3367904399_3937113657" to="3937113657" /><edge from="3937113657" id="3937113657_1985557917" to="1985557917" /><edge from="1985557917" id="1985557917_1985557915" to="1985557915" /><edge from="1985557915" id="1985557915_1985557941" to="1985557941" /><edge from="1985557941" id="1985557941_1833110319" to="1833110319" /><edge from="1833110319" id="1833110319_1985551133" to="1985551133" /><edge from="1985551133" id="1985551133_3933094374" to="3933094374" /><edge from="3933094374" id="3933094374_2707985442" to="2707985442" /><edge from="2707985442" id="2707985442_1985551131" to="1985551131" /><edge from="1985551131" id="1985551131_1985551132" to="1985551132" /><edge from="1985551132" id="1985551132_30943325" to="30943325" /><edge from="30943325" id="30943325_1985549836" to="1985549836" /><edge from="1985549836" id="1985549836_3933090380" to="3933090380" /><edge from="3933090380" id="3933090380_2023894041" to="2023894041" /><edge from="2023894041" id="2023894041_317536476" to="317536476" /><edge from="317536476" id="317536476_1725216746" to="1725216746" /><edge from="1725216746" id="1725216746_137181160" to="137181160" /><edge from="137181160" id="137181160_3933090548" to="3933090548" /><edge from="3933090548" id="3933090548_317535752" to="317535752" /><edge from="317535752" id="317535752_356215162" to="356215162" /><edge from="356215162" id="356215162_2505811398" to="2505811398" /><edge from="2505811398" id="2505811398_1492410162" to="1492410162" /><edge from="1492410162" id="1492410162_1492410185" to="1492410185" /><edge from="1492410185" id="1492410185_1492410156" to="1492410156" /><edge from="1492410156" id="1492410156_1492410217" to="1492410217" /><edge from="1492410217" id="1492410217_1492410149" to="1492410149" /><edge from="1492410149" id="1492410149_1492410158" to="1492410158" /><edge from="1492410158" id="1492410158_3537280109" to="3537280109" /><edge from="3537280109" id="3537280109_3537280111" to="3537280111" /><edge from="3537280111" id="3537280111_1492410150" to="1492410150" /><edge from="1492410150" id="1492410150_1492410191" to="1492410191" /><edge from="1492410191" id="1492410191_1492410169" to="1492410169" /><edge from="1492410169" id="1492410169_1492410214" to="1492410214" /><edge from="1492410214" id="1492410214_3933086393" to="3933086393" /><edge from="3933086393" id="3933086393_4005305751" to="4005305751" /><edge from="4005305751" id="4005305751_775942450" to="775942450" /><edge from="775942450" id="775942450_1900213541" to="1900213541" /><edge from="1900213541" id="1900213541_774547223" to="774547223" /><edge from="774547223" id="774547223_777771693" to="777771693" /><edge from="777771693" id="777771693_1725216852" to="1725216852" /><edge from="1725216852" id="1725216852_774546374" to="774546374" /><edge from="774546374" id="774546374_775941673" to="775941673" /><edge from="775941673" id="775941673_774546373" to="774546373" /><edge from="774546373" id="774546373_775945874" to="775945874" /><edge from="775945874" id="775945874_775941588" to="775941588" /><edge from="775941588" id="775941588_774546372" to="774546372" /><edge from="774546372" id="774546372_1895925155" to="1895925155" /><edge from="1895925155" id="1895925155_2991935464" to="2991935464" /><edge from="2991935464" id="2991935464_1691676440" to="1691676440" /><edge from="1691676440" id="1691676440_711359068" to="711359068" /><edge from="711359068" id="711359068_711369366" to="711369366" /><edge from="711369366" id="711369366_711358863" to="711358863" /><edge from="711358863" id="711358863_711358867" to="711358867" /><edge from="711358867" id="711358867_708717121" to="708717121" /><edge from="708717121" id="708717121_2991935465" to="2991935465" /><edge from="2991935465" id="2991935465_708717112" to="708717112" /><edge from="708717112" id="708717112_777753012" to="777753012" /><edge from="777753012" id="777753012_777753011" to="777753011" /><edge from="777753011" id="777753011_777745518" to="777745518" /><edge from="777745518" id="777745518_777753008" to="777753008" /><edge from="777753008" id="777753008_777753006" to="777753006" /><edge from="777753006" id="777753006_777793471" to="777793471" /><edge from="777793471" id="777793471_317369539" to="317369539" /><edge from="317369539" id="317369539_3215191978" to="3215191978" /><edge from="3215191978" id="3215191978_711331192" to="711331192" /><edge from="711331192" id="711331192_317369535" to="317369535" /><edge from="317369535" id="317369535_317369537" to="317369537" /><edge from="317369537" id="317369537_3215191972" to="3215191972" /><edge from="3215191972" id="3215191972_3215191975" to="3215191975" /><edge from="3215191975" id="3215191975_2266563643" to="2266563643" /><edge from="2266563643" id="2266563643_2266563649" to="2266563649" /><edge from="2266563649" id="2266563649_30467855" to="30467855" /><edge from="30467855" id="30467855_2266563661" to="2266563661" /><edge from="2266563661" id="2266563661_2266563663" to="2266563663" /><edge from="2266563663" id="2266563663_3306876678" to="3306876678" /><edge from="3306876678" id="3306876678_2266563642" to="2266563642" /><edge from="2266563642" id="2266563642_35354279" to="35354279" /><edge from="35354279" id="35354279_3215106494" to="3215106494" /><edge from="3215106494" id="3215106494_3215106488" to="3215106488" /><edge from="3215106488" id="3215106488_259616744" to="259616744" /><edge from="259616744" id="259616744_387153097" to="387153097" /><edge from="387153097" id="387153097_259616740" to="259616740" /><edge from="259616740" id="259616740_3394768954" to="3394768954" /><edge from="3394768954" id="3394768954_767584756" to="767584756" /><edge from="767584756" id="767584756_387153089" to="387153089" /><edge from="387153089" id="387153089_767584755" to="767584755" /><edge from="767584755" id="767584755_1686695079" to="1686695079" /><edge from="1686695079" id="1686695079_387153023" to="387153023" /><edge from="387153023" id="387153023_387153031" to="387153031" /><edge from="387153031" id="387153031_801840602" to="801840602" /><edge from="801840602" id="801840602_3215192000" to="3215192000" /><edge from="3215192000" id="3215192000_3212024922" to="3212024922" /><edge from="3212024922" id="3212024922_3204395233" to="3204395233" /><edge from="3204395233" id="3204395233_3204395232" to="3204395232" /><edge from="3204395232" id="3204395232_3204395231" to="3204395231" /><edge from="3204395231" id="3204395231_3204395230" to="3204395230" /><edge from="3204395230" id="3204395230_3204395229" to="3204395229" /><edge from="3204395229" id="3204395229_4551628270" to="4551628270" /><edge from="4551628270" id="4551628270_387153032" to="387153032" /><edge from="387153032" id="387153032_30942260" to="30942260" /><edge from="30942260" id="30942260_4518394737" to="4518394737" /><edge from="4518394737" id="4518394737_3215192041" to="3215192041" /><edge from="3215192041" id="3215192041_30942261" to="30942261" /><edge from="30942261" id="30942261_332546228" to="332546228" /><edge from="332546228" id="332546228_332546227" to="332546227" /><edge from="332546227" id="332546227_30942262" to="30942262" /><edge from="30942262" id="30942262_332546017" to="332546017" /><edge from="332546017" id="332546017_332544866" to="332544866" /><edge from="332544866" id="332544866_332544912" to="332544912" /><edge from="332544912" id="332544912_3394730438" to="3394730438" /><edge from="3394730438" id="3394730438_3215106461" to="3215106461" /><edge from="3215106461" id="3215106461_387152990" to="387152990" /><edge from="387152990" id="387152990_30942265" to="30942265" /><edge from="30942265" id="30942265_5232347243" to="5232347243" /><edge from="5232347243" id="5232347243_5232347244" to="5232347244" /><edge from="5232347244" id="5232347244_5232347252" to="5232347252" /><edge from="5232347252" id="5232347252_289602864" to="289602864" /><edge from="289602864" id="289602864_289602878" to="289602878" /><edge from="289602878" id="289602878_5232347249" to="5232347249" /><edge from="5232347249" id="5232347249_289597256" to="289597256" /><edge from="289597256" id="289597256_289602744" to="289602744" /><edge from="289602744" id="289602744_663471013" to="663471013" /><edge from="663471013" id="663471013_289648906" to="289648906" /><edge from="289648906" id="289648906_3394730432" to="3394730432" /><edge from="3394730432" id="3394730432_1492131968" to="1492131968" /><edge from="1492131968" id="1492131968_1492131937" to="1492131937" /><edge from="1492131937" id="1492131937_296027713" to="296027713" /><edge from="296027713" id="296027713_1492131952" to="1492131952" /><edge from="1492131952" id="1492131952_296027706" to="296027706" /><edge from="296027706" id="296027706_305106971" to="305106971" /><edge from="305106971" id="305106971_3970811103" to="3970811103" /><edge from="3970811103" id="3970811103_3970811102" to="3970811102" /><edge from="3970811102" id="3970811102_3970811099" to="3970811099" /><edge from="3970811099" id="3970811099_3970811100" to="3970811100" /><edge from="3970811100" id="3970811100_3970811098" to="3970811098" /><edge from="3970811098" id="3970811098_3313036364" to="3313036364" /><edge from="3313036364" id="3313036364_3313036363" to="3313036363" /><edge from="3313036363" id="3313036363_26680088" to="26680088" /><edge from="26680088" id="26680088_26680087" to="26680087" /><edge from="26680087" id="26680087_1132070461" to="1132070461" /><edge from="1132070461" id="1132070461_26680084" to="26680084" /><edge from="26680084" id="26680084_1132070452" to="1132070452" /><edge from="1132070452" id="1132070452_571460260" to="571460260" /><edge from="571460260" id="571460260_306905310" to="306905310" /><edge from="306905310" id="306905310_41675607" to="41675607" /><edge from="41675607" id="41675607_129554697" to="129554697" /><edge from="129554697" id="129554697_634775152" to="634775152" /><edge from="634775152" id="634775152_129554693" to="129554693" /><edge from="129554693" id="129554693_634775151" to="634775151" /><edge from="634775151" id="634775151_41675603" to="41675603" /><edge from="41675603" id="41675603_560997640" to="560997640" /><edge from="560997640" id="560997640_41675601" to="41675601" /><edge from="41675601" id="41675601_560997636" to="560997636" /><edge from="560997636" id="560997636_129554690" to="129554690" /><edge from="129554690" id="129554690_560997615" to="560997615" /><edge from="560997615" id="560997615_129554689" to="1