<edges><edge from="1928298965" id="1928298965_313441110" to="313441110" /><edge from="313441110" id="313441110_313440691" to="313440691" /><edge from="313440691" id="313440691_313441737" to="313441737" /><edge from="313441737" id="313441737_313254240" to="313254240" /><edge from="313254240" id="313254240_313139758" to="313139758" /><edge from="313139758" id="313139758_1928315581" to="1928315581" /><edge from="1928315581" id="1928315581_1928315592" to="1928315592" /><edge from="1928315592" id="1928315592_1928315579" to="1928315579" /><edge from="1928315579" id="1928315579_1928315589" to="1928315589" /><edge from="1928315589" id="1928315589_1928315553" to="1928315553" /><edge from="1928315553" id="1928315553_1928315555" to="1928315555" /><edge from="1928315555" id="1928315555_1928315558" to="1928315558" /><edge from="1928315558" id="1928315558_1928315573" to="1928315573" /><edge from="1928315573" id="1928315573_1928315552" to="1928315552" /><edge from="1928315552" id="1928315552_1928315586" to="1928315586" /><edge from="1928315586" id="1928315586_313139789" to="313139789" /><edge from="313139789" id="313139789_313254109" to="313254109" /><edge from="313254109" id="313254109_313139805" to="313139805" /><edge from="313139805" id="313139805_313254077" to="313254077" /><edge from="313254077" id="313254077_313139816" to="313139816" /><edge from="313139816" id="313139816_313140298" to="313140298" /><edge from="313140298" id="313140298_313139836" to="313139836" /><edge from="313139836" id="313139836_673083815" to="673083815" /><edge from="673083815" id="673083815_313139946" to="313139946" /><edge from="313139946" id="313139946_313140141" to="313140141" /><edge from="313140141" id="313140141_313248476" to="313248476" /><edge from="313248476" id="313248476_313248461" to="313248461" /><edge from="313248461" id="313248461_313139437" to="313139437" /><edge from="313139437" id="313139437_462865616" to="462865616" /><edge from="462865616" id="462865616_462864770" to="462864770" /><edge from="462864770" id="462864770_462854827" to="462854827" /><edge from="462854827" id="462854827_313139919" to="313139919" /><edge from="313139919" id="313139919_311901379" to="311901379" /><edge from="311901379" id="311901379_311900985" to="311900985" /><edge from="311900985" id="311900985_4326585007" to="4326585007" /><edge from="4326585007" id="4326585007_4142788511" to="4142788511" /><edge from="4142788511" id="4142788511_29936554" to="29936554" /><edge from="29936554" id="29936554_4326585008" to="4326585008" /><edge from="4326585008" id="4326585008_4142788490" to="4142788490" /><edge from="4142788490" id="4142788490_311901127" to="311901127" /><edge from="311901127" id="311901127_29960343" to="29960343" /><edge from="29960343" id="29960343_2245577417" to="2245577417" /><edge from="2245577417" id="2245577417_304705278" to="304705278" /><edge from="304705278" id="304705278_304705227" to="304705227" /><edge from="304705227" id="304705227_309975117" to="309975117" /><edge from="309975117" id="309975117_2815396513" to="2815396513" /><edge from="2815396513" id="2815396513_2245577418" to="2245577418" /><edge from="2245577418" id="2245577418_304705215" to="304705215" /><edge from="304705215" id="304705215_2815396505" to="2815396505" /><edge from="2815396505" id="2815396505_309975281" to="309975281" /><edge from="309975281" id="309975281_309975083" to="309975083" /><edge from="309975083" id="309975083_304704681" to="304704681" /><edge from="304704681" id="304704681_2245577415" to="2245577415" /><edge from="2245577415" id="2245577415_309975063" to="309975063" /><edge from="309975063" id="309975063_29960342" to="29960342" /><edge from="29960342" id="29960342_304704449" to="304704449" /><edge from="304704449" id="304704449_309972751" to="309972751" /><edge from="309972751" id="309972751_2245577416" to="2245577416" /><edge from="2245577416" id="2245577416_304704443" to="304704443" /><edge from="304704443" id="304704443_2938998243" to="2938998243" /><edge from="2938998243" id="2938998243_304704440" to="304704440" /><edge from="304704440" id="304704440_4288151643" to="4288151643" /><edge from="4288151643" id="4288151643_2245545092" to="2245545092" /><edge from="2245545092" id="2245545092_304704441" to="304704441" /><edge from="304704441" id="304704441_2080740183" to="2080740183" /><edge from="2080740183" id="2080740183_304704434" to="304704434" /><edge from="304704434" id="304704434_304704433" to="304704433" /><edge from="304704433" id="304704433_304700954" to="304700954" /><edge from="304700954" id="304700954_304704420" to="304704420" /><edge from="304704420" id="304704420_4739203039" to="4739203039" /><edge from="4739203039" id="4739203039_30948249" to="30948249" /><edge from="30948249" id="30948249_304700940" to="304700940" /><edge from="304700940" id="304700940_304701851" to="304701851" /><edge from="304701851" id="304701851_304700794" to="304700794" /><edge from="304700794" id="304700794_2296771813" to="2296771813" /><edge from="2296771813" id="2296771813_304700760" to="304700760" /><edge from="304700760" id="304700760_3506373724" to="3506373724" /><edge from="3506373724" id="3506373724_304700727" to="304700727" /><edge from="304700727" id="304700727_2245347134" to="2245347134" /><edge from="2245347134" id="2245347134_304701495" to="304701495" /><edge from="304701495" id="304701495_304701503" to="304701503" /><edge from="304701503" id="304701503_3224362684" to="3224362684" /><edge from="3224362684" id="3224362684_1487228141" to="1487228141" /><edge from="1487228141" id="1487228141_1487228084" to="1487228084" /><edge from="1487228084" id="1487228084_1487228003" to="1487228003" /><edge from="1487228003" id="1487228003_1487228036" to="1487228036" /><edge from="1487228036" id="1487228036_1487228148" to="1487228148" /><edge from="1487228148" id="1487228148_1487228031" to="1487228031" /><edge from="1487228031" id="1487228031_4169720288" to="4169720288" /><edge from="4169720288" id="4169720288_1487227988" to="1487227988" /><edge from="1487227988" id="1487227988_29936553" to="29936553" /><edge from="29936553" id="29936553_4169720259" to="4169720259" /><edge from="4169720259" id="4169720259_309978787" to="309978787" /><edge from="309978787" id="309978787_1522977019" to="1522977019" /><edge from="1522977019" id="1522977019_1522839079" to="1522839079" /><edge from="1522839079" id="1522839079_1522566268" to="1522566268" /><edge from="1522566268" id="1522566268_1522834359" to="1522834359" /><edge from="1522834359" id="1522834359_1522566317" to="1522566317" /><edge from="1522566317" id="1522566317_1522834449" to="1522834449" /><edge from="1522834449" id="1522834449_1522834336" to="1522834336" /><edge from="1522834336" id="1522834336_1522834355" to="1522834355" /><edge from="1522834355" id="1522834355_31477188" to="31477188" /><edge from="31477188" id="31477188_31477187" to="31477187" /><edge from="31477187" id="31477187_31477186" to="31477186" /><edge from="31477186" id="31477186_2940375840" to="2940375840" /><edge from="2940375840" id="2940375840_370477432" to="370477432" /><edge from="370477432" id="370477432_214122372" to="214122372" /><edge from="214122372" id="214122372_370477489" to="370477489" /><edge from="370477489" id="370477489_31477185" to="31477185" /><edge from="31477185" id="31477185_31477184" to="31477184" /><edge from="31477184" id="31477184_2940375839" to="2940375839" /><edge from="2940375839" id="2940375839_370477495" to="370477495" /><edge from="370477495" id="370477495_214122180" to="214122180" /><edge from="214122180" id="214122180_214092481" to="214092481" /><edge from="214092481" id="214092481_541122878" to="541122878" /><edge from="541122878" id="541122878_31477183" to="31477183" /><edge from="31477183" id="31477183_5546311686" to="5546311686" /><edge from="5546311686" id="5546311686_740374973" to="740374973" /><edge from="740374973" id="740374973_114268737" to="114268737" /><edge from="114268737" id="114268737_299026732" to="299026732" /><edge from="299026732" id="299026732_2567155992" to="2567155992" /><edge from="2567155992" id="2567155992_541122843" to="541122843" /><edge from="541122843" id="541122843_608962184" to="608962184" /><edge from="608962184" id="608962184_691082186" to="691082186" /><edge from="691082186" id="691082186_31477182" to="31477182" /><edge from="31477182" id="31477182_31477181" to="31477181" /><edge from="31477181" id="31477181_31477180" to="31477180" /><edge from="31477180" id="31477180_2774434013" to="2774434013" /><edge from="2774434013" id="2774434013_31477179" to="31477179" /><edge from="31477179" id="31477179_128893036" to="128893036" /><edge from="128893036" id="128893036_31477178" to="31477178" /><edge from="31477178" id="31477178_31477177" to="31477177" /><edge from="31477177" id="31477177_31477176" to="31477176" /><edge from="31477176" id="31477176_4698484056" to="4698484056" /><edge from="4698484056" id="4698484056_561538868" to="561538868" /><edge from="561538868" id="561538868_31477175" to="31477175" /><edge from="31477175" id="31477175_305909758" to="305909758" /><edge from="305909758" id="305909758_31477174" to="31477174" /><edge from="31477174" id="31477174_906234095" to="906234095" /><edge from="906234095" id="906234095_3067843936" to="3067843936" /><edge from="3067843936" id="3067843936_827113739" to="827113739" /><edge from="827113739" id="827113739_128874949" to="128874949" /><edge from="128874949" id="128874949_4698523258" to="4698523258" /><edge from="4698523258" id="4698523258_128874985" to="128874985" /><edge from="128874985" id="128874985_305913666" to="305913666" /><edge from="305913666" id="305913666_151451933" to="151451933" /><edge from="151451933" id="151451933_305913661" to="305913661" /><edge from="305913661" id="305913661_305913663" to="305913663" /><edge from="305913663" id="305913663_128882514" to="128882514" /><edge from="128882514" id="128882514_1519470746" to="1519470746" /><edge from="1519470746" id="1519470746_31477172" to="31477172" /><edge from="31477172" id="31477172_1519470912" to="1519470912" /><edge from="1519470912" id="1519470912_283059741" to="283059741" /><edge from="283059741" id="283059741_129288570" to="129288570" /><edge from="129288570" id="129288570_2006021064" to="2006021064" /><edge from="2006021064" id="2006021064_5034416925" to="5034416925" /><edge from="5034416925" id="5034416925_1519470958" to="1519470958" /><edge from="1519470958" id="1519470958_4696480570" to="4696480570" /><edge from="4696480570" id="4696480570_319860962" to="319860962" /><edge from="319860962" id="319860962_4696480571" to="4696480571" /><edge from="4696480571" id="4696480571_1519471032" to="1519471032" /><edge from="1519471032" id="1519471032_1519471015" to="1519471015" /><edge from="1519471015" id="1519471015_1521014718" to="1521014718" /><edge from="1521014718" id="1521014718_31477171" to="31477171" /><edge from="31477171" id="31477171_38779052" to="38779052" /><edge from="38779052" id="38779052_248969197" to="248969197" /><edge from="248969197" id="248969197_3311863658" to="3311863658" /><edge from="3311863658" id="3311863658_3311863659" to="3311863659" /><edge from="3311863659" id="3311863659_3311863660" to="3311863660" /><edge from="3311863660" id="3311863660_2672588668" to="2672588668" /><edge from="2672588668" id="2672588668_810963146" to="810963146" /><edge from="810963146" id="810963146_384027031" to="384027031" /><edge from="384027031" id="384027031_3823791807" to="3823791807" /><edge from="3823791807" id="3823791807_493102375" to="493102375" /><edge from="493102375" id="493102375_384027591" to="384027591" /><edge from="384027591" id="384027591_493102372" to="493102372" /><edge from="493102372" id="493102372_384027122" to="384027122" /><edge from="384027122" id="384027122_151434783" to="151434783" /><edge from="151434783" id="151434783_2149732940" to="2149732940" /><edge from="2149732940" id="2149732940_151434770" to="151434770" /><edge from="151434770" id="151434770_233247093" to="233247093" /><edge from="233247093" id="233247093_401505348" to="401505348" /><edge from="401505348" id="401505348_2214002875" to="2214002875" /><edge from="2214002875" id="2214002875_233247032" to="233247032" /><edge from="233247032" id="233247032_30287474" to="30287474" /><edge from="30287474" id="30287474_2214002871" to="2214002871" /><edge from="2214002871" id="2214002871_385176413" to="385176413" /><edge from="385176413" id="385176413_233255161" to="233255161" /><edge from="233255161" id="233255161_233255141" to="233255141" /><edge from="233255141" id="233255141_233270800" to="233270800" /><edge from="233270800" id="233270800_2457712012" to="2457712012" /><edge from="2457712012" id="2457712012_384006353" to="384006353" /><edge from="384006353" id="384006353_233270817" to="233270817" /><edge from="233270817" id="233270817_233255184" to="233255184" /><edge from="233255184" id="233255184_248969233" to="248969233" /><edge from="248969233" id="248969233_233262815" to="233262815" /><edge from="233262815" id="233262815_600329022" to="600329022" /><edge from="600329022" id="600329022_4297530169" to="4297530169" /><edge from="4297530169" id="4297530169_4297530168" to="4297530168" /><edge from="4297530168" id="4297530168_384005156" to="384005156" /><edge from="384005156" id="384005156_600329021" to="600329021" /><edge from="600329021" id="600329021_4297530194" to="4297530194" /><edge from="4297530194" id="4297530194_31477168" to="31477168" /><edge from="31477168" id="31477168_4297530193" to="4297530193" /><edge from="4297530193" id="4297530193_4297530167" to="4297530167" /><edge from="4297530167" id="4297530167_361268958" to="361268958" /><edge from="361268958" id="361268958_230784835" to="230784835" /><edge from="230784835" id="230784835_230782496" to="230782496" /><edge from="230782496" id="230782496_388571186" to="388571186" /><edge from="388571186" id="388571186_388569480" to="388569480" /><edge from="388569480" id="388569480_4000075632" to="4000075632" /><edge from="4000075632" id="4000075632_2199393936" to="2199393936" /><edge from="2199393936" id="2199393936_4294474597" to="4294474597" /><edge from="4294474597" id="4294474597_4294474596" to="4294474596" /><edge from="4294474596" id="4294474596_2199393955" to="2199393955" /><edge from="2199393955" id="2199393955_2199393953" to="2199393953" /><edge from="2199393953" id="2199393953_2347142385" to="2347142385" /><edge from="2347142385" id="2347142385_4000075633" to="4000075633" /><edge from="4000075633" id="4000075633_4000075634" to="4000075634" /><edge from="4000075634" id="4000075634_2199393934" to="2199393934" /><edge from="2199393934" id="2199393934_368094019" to="368094019" /><edge from="368094019" id="368094019_291966939" to="291966939" /><edge from="291966939" id="291966939_540056237" to="540056237" /><edge from="540056237" id="540056237_291966932" to="291966932" /><edge from="291966932" id="291966932_1367582250" to="1367582250" /><edge from="1367582250" id="1367582250_769188524" to="769188524" /><edge from="769188524" id="769188524_767747204" to="767747204" /><edge from="767747204" id="767747204_767747295" to="767747295" /><edge from="767747295" id="767747295_767747936" to="767747936" /><edge from="767747936" id="767747936_767747938" to="767747938" /><edge from="767747938" id="767747938_767747939" to="767747939" /><edge from="767747939" id="767747939_368389504" to="368389504" /><edge from="368389504" id="368389504_368390159" to="368390159" /><edge from="368390159" id="368390159_368390158" to="368390158" /><edge from="368390158" id="368390158_767819745" to="767819745" /><edge from="767819745" id="767819745_767753042" to="767753042" /><edge from="767753042" id="767753042_767753041" to="767753041" /><edge from="767753041" id="767753041_368390010" to="368390010" /><edge from="368390010" id="368390010_767752914" to="767752914" /><edge from="767752914" id="767752914_767752915" to="767752915" /><edge from="767752915" id="767752915_767752955" to="767752955" /><edge from="767752955" id="767752955_767752598" to="767752598" /><edge from="767752598" id="767752598_767726007" to="767726007" /><edge from="767726007" id="767726007_30287406" to="30287406" /><edge from="30287406" id="30287406_30287414" to="30287414" /><edge from="30287414" id="30287414_34160616" to="34160616" /><edge from="34160616" id="34160616_446051232" to="446051232" /><edge from="446051232" id="446051232_30287401" to="30287401" /><edge from="30287401" id="30287401_446051231" to="446051231" /><edge from="446051231" id="446051231_30287413" to="30287413" /><edge from="30287413" id="30287413_446051230" to="446051230" /><edge from="446051230" id="446051230_30287386" to="30287386" /><edge from="30287386" id="30287386_244222508" to="244222508" /><edge from="244222508" id="244222508_370243915" to="370243915" /><edge from="370243915" id="370243915_30287405" to="30287405" /><edge from="30287405" id="30287405_677245570" to="677245570" /><edge from="677245570" id="677245570_137182987" to="137182987" /><edge from="137182987" id="137182987_1985549817" to="1985549817" /><edge from="1985549817" id="1985549817_1985549821" to="1985549821" /><edge from="1985549821" id="1985549821_2005895266" to="2005895266" /><edge from="2005895266" id="2005895266_477075431" to="477075431" /><edge from="477075431" id="477075431_477081585" to="477081585" /><edge from="477081585" id="477081585_30947458" to="30947458" /><edge from="30947458" id="30947458_1725216573" to="1725216573" /><edge from="1725216573" id="1725216573_1725216536" to="1725216536" /><edge from="1725216536" id="1725216536_330775681" to="330775681" /><edge from="330775681" id="330775681_356215259" to="356215259" /><edge from="356215259" id="356215259_356215252" to="356215252" /><edge from="356215252" id="356215252_1492410199" to="1492410199" /><edge from="1492410199" id="1492410199_1492410161" to="1492410161" /><edge from="1492410161" id="1492410161_1492175321" to="1492175321" /><edge from="1492175321" id="1492175321_1492350740" to="1492350740" /><edge from="1492350740" id="1492350740_1492350741" to="1492350741" /><edge from="1492350741" id="1492350741_1492175306" to="1492175306" /><edge from="1492175306" id="1492175306_1492175308" to="1492175308" /><edge from="1492175308" id="1492175308_1492175310" to="1492175310" /><edge from="1492175310" id="1492175310_1492175312" to="1492175312" /><edge from="1492175312" id="1492175312_1492175313" to="1492175313" /><edge from="1492175313" id="1492175313_1492410160" to="1492410160" /><edge from="1492410160" id="1492410160_1492410220" to="1492410220" /><edge from="1492410220" id="1492410220_1492410197" to="1492410197" /><edge from="1492410197" id="1492410197_1492410168" to="1492410168" /><edge from="1492410168" id="1492410168_1492410184" to="1492410184" /><edge from="1492410184" id="1492410184_1492410166" to="1492410166" /><edge from="1492410166" id="1492410166_3933088999" to="3933088999" /><edge from="3933088999" id="3933088999_1492410217" to="1492410217" /><edge from="1492410217" id="1492410217_1492410213" to="1492410213" /><edge from="1492410213" id="1492410213_312718905" to="312718905" /><edge from="312718905" id="312718905_775942860" to="775942860" /><edge from="775942860" id="775942860_33238476" to="33238476" /><edge from="33238476" id="33238476_3933082771" to="3933082771" /><edge from="3933082771" id="3933082771_312718293" to="312718293" /><edge from="312718293" id="312718293_52600140" to="52600140" /><edge from="52600140" id="52600140_1725216623" to="1725216623" /><edge from="1725216623" id="1725216623_3933082767" to="3933082767" /><edge from="3933082767" id="3933082767_52600163" to="52600163" /><edge from="52600163" id="52600163_777828239" to="777828239" /><edge from="777828239" id="777828239_2383215085" to="2383215085" /><edge from="2383215085" id="2383215085_307350280" to="307350280" /><edge from="307350280" id="307350280_777833057" to="777833057" /><edge from="777833057" id="777833057_777829815" to="777829815" /><edge from="777829815" id="777829815_777829277" to="777829277" /><edge from="777829277" id="777829277_777832607" to="777832607" /><edge from="777832607" id="777832607_307350279" to="307350279" /><edge from="307350279" id="307350279_777831467" to="777831467" /><edge from="777831467" id="777831467_777827023" to="777827023" /><edge from="777827023" id="777827023_777826283" to="777826283" /><edge from="777826283" id="777826283_777826228" to="777826228" /><edge from="777826228" id="777826228_30943324" to="30943324" /><edge from="30943324" id="30943324_780909297" to="780909297" /><edge from="780909297" id="780909297_780910447" to="780910447" /><edge from="780910447" id="780910447_780910234" to="780910234" /><edge from="780910234" id="780910234_780909517" to="780909517" /><edge from="780909517" id="780909517_89531904" to="89531904" /><edge from="89531904" id="89531904_3933082774" to="3933082774" /><edge from="3933082774" id="3933082774_611991914" to="611991914" /><edge from="611991914" id="611991914_777804660" to="777804660" /><edge from="777804660" id="777804660_777804656" to="777804656" /><edge from="777804656" id="777804656_777804655" to="777804655" /><edge from="777804655" id="777804655_35285652" to="35285652" /><edge from="35285652" id="35285652_2984287417" to="2984287417" /><edge from="2984287417" id="2984287417_777804079" to="777804079" /><edge from="777804079" id="777804079_777806543" to="777806543" /><edge from="777806543" id="777806543_777803391" to="777803391" /><edge from="777803391" id="777803391_2984287419" to="2984287419" /><edge from="2984287419" id="2984287419_475511476" to="475511476" /><edge from="475511476" id="475511476_1686719046" to="1686719046" /><edge from="1686719046" id="1686719046_35523904" to="35523904" /><edge from="35523904" id="35523904_1686719017" to="1686719017" /><edge from="1686719017" id="1686719017_1686719014" to="1686719014" /><edge from="1686719014" id="1686719014_2096325811" to="2096325811" /><edge from="2096325811" id="2096325811_2096325799" to="2096325799" /><edge from="2096325799" id="2096325799_2096325816" to="2096325816" /><edge from="2096325816" id="2096325816_2096325806" to="2096325806" /><edge from="2096325806" id="2096325806_2096325804" to="2096325804" /><edge from="2096325804" id="2096325804_2096325801" to="2096325801" /><edge from="2096325801" id="2096325801_2096325822" to="2096325822" /><edge from="2096325822" id="2096325822_2096325832" to="2096325832" /><edge from="2096325832" id="2096325832_2096325821" to="2096325821" /><edge from="2096325821" id="2096325821_1686718973" to="1686718973" /><edge from="1686718973" id="1686718973_475511486" to="475511486" /><edge from="475511486" id="475511486_54401918" to="54401918" /><edge from="54401918" id="54401918_283334322" to="283334322" /><edge from="283334322" id="283334322_1994687855" to="1994687855" /><edge from="1994687855" id="1994687855_283334321" to="283334321" /><edge from="283334321" id="283334321_283334320" to="283334320" /><edge from="283334320" id="283334320_282825815" to="282825815" /><edge from="282825815" id="282825815_282825860" to="282825860" /><edge from="282825860" id="282825860_282825859" to="282825859" /><edge from="282825859" id="282825859_282825845" to="282825845" /><edge from="282825845" id="282825845_282825847" to="282825847" /><edge from="282825847" id="282825847_282825790" to="282825790" /><edge from="282825790" id="282825790_282825795" to="282825795" /><edge from="282825795" id="282825795_387153067" to="387153067" /><edge from="387153067" id="387153067_54399736" to="54399736" /><edge from="54399736" id="54399736_54399741" to="54399741" /><edge from="54399741" id="54399741_780995790" to="780995790" /><edge from="780995790" id="780995790_838386039" to="838386039" /><edge from="838386039" id="838386039_781112997" to="781112997" /><edge from="781112997" id="781112997_781112995" to="781112995" /><edge from="781112995" id="781112995_781112992" to="781112992" /><edge from="781112992" id="781112992_33317568" to="33317568" /><edge from="33317568" id="33317568_2365009329" to="2365009329" /><edge from="2365009329" id="2365009329_2207974407" to="2207974407" /><edge from="2207974407" id="2207974407_4460254047" to="4460254047" /><edge from="4460254047" id="4460254047_387153044" to="387153044" /><edge from="387153044" id="387153044_3394776717" to="3394776717" /><edge from="3394776717" id="3394776717_3094966840" to="3094966840" /><edge from="3094966840" id="3094966840_387153045" to="387153045" /><edge from="387153045" id="387153045_3094966842" to="3094966842" /><edge from="3094966842" id="3094966842_572004507" to="572004507" /><edge from="572004507" id="572004507_3094966844" to="3094966844" /><edge from="3094966844" id="3094966844_702451422" to="702451422" /><edge from="702451422" id="702451422_3394779111" to="3394779111" /><edge from="3394779111" id="3394779111_702478358" to="702478358" /><edge from="702478358" id="702478358_702451456" to="702451456" /><edge from="702451456" id="702451456_702451430" to="702451430" /><edge from="702451430" id="702451430_702451433" to="702451433" /><edge from="702451433" id="702451433_3394764077" to="3394764077" /><edge from="3394764077" id="3394764077_702478083" to="702478083" /><edge from="702478083" id="702478083_702451442" to="702451442" /><edge from="702451442" id="702451442_1833877038" to="1833877038" /><edge from="1833877038" id="1833877038_702451267" to="702451267" /><edge from="702451267" id="702451267_1833877037" to="1833877037" /><edge from="1833877037" id="1833877037_702451248" to="702451248" /><edge from="702451248" id="702451248_702452647" to="702452647" /><edge from="702452647" id="702452647_332543902" to="332543902" /><edge from="332543902" id="332543902_3394781452" to="3394781452" /><edge from="3394781452" id="3394781452_702363904" to="702363904" /><edge from="702363904" id="702363904_130038130" to="130038130" /><edge from="130038130" id="130038130_130038129" to="130038129" /><edge from="130038129" id="130038129_702363903" to="702363903" /><edge from="702363903" id="702363903_130038128" to="130038128" /><edge from="130038128" id="130038128_130038127" to="130038127" /><edge from="130038127" id="130038127_306383379" to="306383379" /><edge from="306383379" id="306383379_702363855" to="702363855" /><edge from="702363855" id="702363855_702363888" to="702363888" /><edge from="702363888" id="702363888_30942253" to="30942253" /><edge from="30942253" id="30942253_702351483" to="702351483" /><edge from="702351483" id="702351483_702351482" to="702351482" /><edge from="702351482" id="702351482_702351481" to="702351481" /><edge from="702351481" id="702351481_130038331" to="130038331" /><edge from="130038331" id="130038331_130038330" to="130038330" /><edge from="130038330" id="130038330_130038296" to="130038296" /><edge from="130038296" id="130038296_130038295" to="130038295" /><edge from="130038295" id="130038295_130038294" to="130038294" /><edge from="130038294" id="130038294_130038293" to="130038293" /><edge from="130038293" id="130038293_130038292" to="130038292" /><edge from="130038292" id="130038292_30942252" to="30942252" /><edge from="30942252" id="30942252_30942249" to="30942249" /><edge from="30942249" id="30942249_702351475" to="702351475" /><edge from="702351475" id="702351475_30942248" to="30942248" /><edge from="30942248" id="30942248_76459457" to="76459457" /><edge from="76459457" id="76459457_702351474" to="702351474" /><edge from="702351474" id="702351474_130039046" to="130039046" /><edge from="130039046" id="130039046_702351473" to="702351473" /><edge from="702351473" id="702351473_702351447" to="702351447" /><edge from="702351447" id="702351447_130039064" to="130039064" /><edge from="130039064" id="130039064_3790949319" to="3790949319" /><edge from="3790949319" id="3790949319_1833875777" to="1833875777" /><edge from="1833875777" id="1833875777_3555805912" to="3555805912" /><edge from="3555805912" id="3555805912_4273053908" to="4273053908" /><edge from="4273053908" id="4273053908_3790949317" to="3790949317" /><edge from="3790949317" id="3790949317_3790949307" to="3790949307" /><edge from="3790949307" id="3790949307_130040068" to="130040068" /><edge from="130040068" id="130040068_583063758" to="583063758" /><edge from="583063758" id="583063758_30942487" to="30942487" /><edge from="30942487" id="30942487_4794459427" to="4794459427" /><edge from="4794459427" id="4794459427_130042878" to="130042878" /><edge from="130042878" id="130042878_4794459318" to="4794459318" /><edge from="4794459318" id="4794459318_202473725" to="202473725" /><edge from="202473725" id="202473725_130042877" to="130042877" /><edge from="130042877" id="130042877_130042876" to="130042876" /><edge from="130042876" id="130042876_130042875" to="130042875" /><edge from="130042875" id="130042875_130043112" to="130043112" /><edge from="130043112" id="130043112_130042874" to="130042874" /><edge from="130042874" id="130042874_130042873" to="130042873" /><edge from="130042873" id="130042873_130042872" to="130042872" /><edge from="130042872" id="130042872_130042871" to="130042871" /><edge from="130042871" id="130042871_130042869" to="130042869" /><edge from="130042869" id="130042869_3326880158" to="3326880158" /><edge from="3326880158" id="3326880158_130042868" to="130042868" /><edge from="130042868" id="130042868_1112411372" to="1112411372" /><edge from="1112411372" id="1112411372_130043040" to="130043040" /><edge from="130043040" id="130043040_3326880159" to="3326880159" /><edge from="3326880159" id="3326880159_3326880156" to="3326880156" /><edge from="3326880156" id="3326880156_3326880153" to="3326880153" /><edge from="3326880153" id="3326880153_130042866" to="130042866" /><edge from="130042866" id="130042866_202520404" to="202520404" /><edge from="202520404" id="202520404_2401378847" to="2401378847" /><edge from="2401378847" id="2401378847_2401378846" to="2401378846" /><edge from="2401378846" id="2401378846_202519507" to="202519507" /><edge from="202519507" id="202519507_130042854" to="130042854" /><edge from="130042854" id="130042854_130042853" to="130042853" /><edge from="130042853" id="130042853_