<nodes><node id="5546311686" x="145.013087" y="-37.8043532" /><node id="227770375" x="144.9847551" y="-37.8007723" /><node id="4000710669" x="145.038027" y="-37.807692" /><node id="4000710670" x="145.038111" y="-37.8077682" /><node id="4000710671" x="145.0380971" y="-37.8077858" /><node id="850722885" x="145.0379324" y="-37.8076811" /><node id="4288151637" x="145.0300905" y="-37.8070383" /><node id="4288151642" x="145.0437864" y="-37.8083295" /><node id="4288151643" x="145.043796" y="-37.8083632" /><node id="846546016" x="144.9677857" y="-37.8179589" /><node id="227770471" x="144.9852092" y="-37.8008205" /><node id="306905210" x="144.9392847" y="-37.8134273" /><node id="123338881" x="144.9261679" y="-37.7994891" /><node id="123338882" x="144.9260993" y="-37.7994552" /><node id="60653699" x="144.9438917" y="-37.813149" /><node id="60653700" x="144.9442898" y="-37.8135071" /><node id="60653701" x="144.9445173" y="-37.8138029" /><node id="306905226" x="144.9385832" y="-37.812284" /><node id="60653707" x="144.9505059" y="-37.8178344" /><node id="60653712" x="144.9505662" y="-37.8179149" /><node id="306905235" x="144.9384048" y="-37.8119931" /><node id="67666078" x="144.9207418" y="-37.7923425" /><node id="3306881184" x="144.9558159" y="-37.8118399" /><node id="60653733" x="144.9428102" y="-37.8127594" /><node id="60653735" x="144.9432693" y="-37.812786" /><node id="2214002868" x="144.984657" y="-37.7968521" /><node id="2214002870" x="144.9847751" y="-37.7959515" /><node id="2214002875" x="144.9845347" y="-37.7975621" /><node id="2774434013" x="145.0074344" y="-37.801955" /><node id="367132897" x="144.9738332" y="-37.8092779" /><node id="268533989" x="144.9751816" y="-37.8118185" /><node id="268533990" x="144.97473" y="-37.8117705" /><node id="268533991" x="144.9753622" y="-37.8118383" /><node id="268533993" x="144.9753482" y="-37.8107359" /><node id="202473725" x="144.9334558" y="-37.8040237" /><node id="371949823" x="144.9692898" y="-37.8049166" /><node id="4283908139" x="144.9756838" y="-37.8094795" /><node id="227508487" x="144.9588428" y="-37.808659" /><node id="373653770" x="144.9158538" y="-37.8077456" /><node id="4717969677" x="144.9002959" y="-37.8118549" /><node id="227508496" x="144.9593225" y="-37.8096849" /><node id="95518995" x="144.9318371" y="-37.7963533" /><node id="589501828" x="144.957654" y="-37.8201983" /><node id="92242202" x="144.9310789" y="-37.7912765" /><node id="128876884" x="144.9949952" y="-37.8027541" /><node id="372998488" x="144.986353" y="-37.8090958" /><node id="566444092" x="144.9374063" y="-37.7952375" /><node id="128876909" x="144.9971376" y="-37.8029669" /><node id="711328116" x="144.9567733" y="-37.8078097" /><node id="5484183939" x="144.8823392" y="-37.8188401" /><node id="547586436" x="144.9844808" y="-37.813942" /><node id="547586437" x="144.9847561" y="-37.8139718" /><node id="591430026" x="144.9641397" y="-37.8183458" /><node id="1801486737" x="144.8825799" y="-37.8043255" /><node id="2696446375" x="144.985371" y="-37.8117628" /><node id="92242361" x="144.9306254" y="-37.7912222" /><node id="1279001026" x="144.8981198" y="-37.7978731" /><node id="1279001028" x="144.8958036" y="-37.7993199" /><node id="1928298965" x="145.0742633" y="-37.8066668" /><node id="243963300" x="144.9748752" y="-37.8221442" /><node id="250774441" x="145.0092157" y="-37.8144842" /><node id="250003539" x="144.8947191" y="-37.8103262" /><node id="575570427" x="144.9855656" y="-37.8243287" /><node id="1279001090" x="144.8973691" y="-37.7969753" /><node id="1279001114" x="144.8960428" y="-37.7968841" /><node id="708722778" x="144.9569986" y="-37.8071927" /><node id="3171517001" x="144.9617879" y="-37.8038953" /><node id="2005992020" x="144.9950094" y="-37.8024037" /><node id="575570529" x="144.9830631" y="-37.8240109" /><node id="575570532" x="144.9842071" y="-37.824155" /><node id="575570535" x="144.9868236" y="-37.8244939" /><node id="575570537" x="144.988099" y="-37.8246581" /><node id="575570540" x="144.988456" y="-37.8247008" /><node id="266734181" x="144.976053" y="-37.8060715" /><node id="4428399220" x="144.8795558" y="-37.8199646" /><node id="781091464" x="145.0131617" y="-37.8121831" /><node id="4753916557" x="144.9290341" y="-37.7905357" /><node id="122749588" x="144.9416353" y="-37.8132193" /><node id="67797693" x="144.9155762" y="-37.793798" /><node id="372998848" x="144.9876645" y="-37.8092246" /><node id="3161948890" x="144.957819" y="-37.8088113" /><node id="1132069605" x="144.94298" y="-37.8127024" /><node id="4544561900" x="144.9729904" y="-37.8112936" /><node id="4544561901" x="144.9729459" y="-37.8113061" /><node id="4544561902" x="144.9730165" y="-37.8112864" /><node id="4544561903" x="144.9730519" y="-37.8112768" /><node id="1132069617" x="144.9429385" y="-37.8127164" /><node id="4544561907" x="144.9729621" y="-37.8112736" /><node id="723976949" x="145.0088923" y="-37.8113217" /><node id="3161948918" x="144.9566668" y="-37.8087314" /><node id="3161948919" x="144.9566699" y="-37.8087752" /><node id="3161948920" x="144.9566591" y="-37.8088409" /><node id="3161948921" x="144.9573385" y="-37.8089164" /><node id="3161948922" x="144.9576682" y="-37.8089395" /><node id="1686695079" x="144.9503592" y="-37.8067126" /><node id="103121662" x="144.9553881" y="-37.8131438" /><node id="233243402" x="144.9847533" y="-37.7961766" /><node id="52593421" x="144.9493511" y="-37.8042068" /><node id="3161948943" x="144.9575203" y="-37.8089347" /><node id="103121688" x="144.9549523" y="-37.8132701" /><node id="1426680623" x="145.0195653" y="-37.8093127" /><node id="3161948957" x="144.9567831" y="-37.8080116" /><node id="317729584" x="144.9575727" y="-37.8089274" /><node id="3907442139" x="144.9366727" y="-37.7952335" /><node id="540050219" x="144.9774519" y="-37.7986046" /><node id="540050220" x="144.9777536" y="-37.7986382" /><node id="540050221" x="144.9779443" y="-37.7986593" /><node id="1426680628" x="145.0194308" y="-37.8093139" /><node id="67709749" x="144.9229212" y="-37.791929" /><node id="95519552" x="144.9317598" y="-37.796333" /><node id="95519554" x="144.9317083" y="-37.7962855" /><node id="390923076" x="144.936728" y="-37.7955675" /><node id="702376763" x="144.9405012" y="-37.8080752" /><node id="2631959402" x="144.9064092" y="-37.7950267" /><node id="571835276" x="144.8709958" y="-37.8116563" /><node id="571835277" x="144.877302" y="-37.8183393" /><node id="571835278" x="144.8772269" y="-37.8180246" /><node id="571835279" x="144.8771813" y="-37.8178424" /><node id="571835280" x="144.8771049" y="-37.8175521" /><node id="571835281" x="144.876999" y="-37.8173932" /><node id="571835282" x="144.8769037" y="-37.8170945" /><node id="571835283" x="144.8768233" y="-37.8169324" /><node id="571835284" x="144.8767294" y="-37.8168508" /><node id="571835285" x="144.8766409" y="-37.8165944" /><node id="571835286" x="144.8765483" y="-37.8164524" /><node id="400753567" x="144.9362284" y="-37.8086136" /><node id="400753571" x="144.9362377" y="-37.8087333" /><node id="2291073957" x="144.9688582" y="-37.8081719" /><node id="400753574" x="144.9362431" y="-37.8087969" /><node id="571835303" x="144.8721924" y="-37.8133705" /><node id="571835304" x="144.872116" y="-37.8132603" /><node id="571835305" x="144.871939" y="-37.812917" /><node id="571835306" x="144.8717861" y="-37.8126807" /><node id="571835307" x="144.8715849" y="-37.8123809" /><node id="571835308" x="144.87142" y="-37.8121775" /><node id="571835309" x="144.8710847" y="-37.8117674" /><node id="571835310" x="144.870854" y="-37.8114718" /><node id="2291073974" x="144.9627945" y="-37.8098005" /><node id="400753591" x="144.9362699" y="-37.808959" /><node id="2291073976" x="144.961391" y="-37.8102099" /><node id="2291073977" x="144.9612489" y="-37.8102507" /><node id="400753594" x="144.9363491" y="-37.8090406" /><node id="400753596" x="144.9365194" y="-37.8091487" /><node id="400753599" x="144.9367313" y="-37.809244" /><node id="2291073984" x="144.9589795" y="-37.8109096" /><node id="571835329" x="144.8725314" y="-37.813763" /><node id="400753602" x="144.9369713" y="-37.8093489" /><node id="2291073987" x="144.9590364" y="-37.8110331" /><node id="400753604" x="144.9369713" y="-37.8094146" /><node id="2291073989" x="144.9575123" y="-37.811333" /><node id="2291073990" x="144.9569647" y="-37.8114948" /><node id="2291073991" x="144.9564689" y="-37.8116451" /><node id="2291073992" x="144.9563065" y="-37.8116918" /><node id="400753610" x="144.9369169" y="-37.8095207" /><node id="400753614" x="144.93699" y="-37.8097758" /><node id="2291073999" x="144.9539446" y="-37.812372" /><node id="250774457" x="145.0118159" y="-37.8147977" /><node id="2291074002" x="144.9540156" y="-37.8124949" /><node id="571835347" x="144.8770032" y="-37.816207" /><node id="2291074006" x="144.9514986" y="-37.813093" /><node id="1985549817" x="144.9666456" y="-37.802031" /><node id="571835352" x="144.8734571" y="-37.8138621" /><node id="2123710628" x="145.0549079" y="-37.8018543" /><node id="571835354" x="144.8737749" y="-37.8139648" /><node id="571835355" x="144.874137" y="-37.8142625" /><node id="571835356" x="144.8743731" y="-37.8143992" /><node id="571835357" x="144.8746748" y="-37.8145507" /><node id="571835358" x="144.8752046" y="-37.8147213" /><node id="571835359" x="144.8756511" y="-37.8148516" /><node id="571835360" x="144.8763753" y="-37.815002" /><node id="571835362" x="144.8765135" y="-37.815037" /><node id="1985549819" x="144.9668689" y="-37.8007677" /><node id="571835364" x="144.8768555" y="-37.8152542" /><node id="571835365" x="144.8771143" y="-37.8154619" /><node id="571835367" x="144.8773315" y="-37.815838" /><node id="571835368" x="144.8772631" y="-37.8160477" /><node id="571835369" x="144.8770875" y="-37.8161643" /><node id="1522566124" x="145.0283619" y="-37.80538" /><node id="462849005" x="145.0625587" y="-37.8095822" /><node id="462849009" x="145.0620276" y="-37.8095172" /><node id="2123710634" x="145.0545571" y="-37.8037607" /><node id="571835393" x="144.8771297" y="-37.8161363" /><node id="2207974407" x="144.9480984" y="-37.8028643" /><node id="1522566159" x="145.025819" y="-37.8050905" /><node id="1522566160" x="145.0289874" y="-37.8072315" /><node id="547587095" x="144.9902428" y="-37.8135038" /><node id="1522566177" x="145.0275461" y="-37.8072177" /><node id="2209383458" x="144.9580028" y="-37.7955772" /><node id="1522566180" x="145.0289345" y="-37.8066122" /><node id="1522566181" x="145.0286527" y="-37.8076585" /><node id="2123710641" x="145.0546191" y="-37.8038519" /><node id="2340127788" x="144.9502532" y="-37.7991098" /><node id="1522566189" x="145.030128" y="-37.8064868" /><node id="2266563639" x="144.9536876" y="-37.8088633" /><node id="2382446772" x="144.9030023" y="-37.8000105" /><node id="2266563642" x="144.954089" y="-37.8087118" /><node id="2266563651" x="144.9539995" y="-37.8087371" /><node id="1522566214" x="145.0283329" y="-37.8072888" /><node id="2209383495" x="144.9576193" y="-37.7996903" /><node id="2266563662" x="144.954759" y="-37.808604" /><node id="2266563663" x="144.9548196" y="-37.8085051" /><node id="1522566225" x="145.0301583" y="-37.8063455" /><node id="377947223" x="144.8774272" y="-37.818648" /><node id="3506373724" x="145.0334112" y="-37.8094378" /><node id="1522566240" x="145.0283959" y="-37.8053835" /><node id="1409483878" x="144.8764456" y="-37.8164263" /><node id="222987367" x="144.9880745" y="-37.8067851" /><node id="1522566262" x="145.0280298" y="-37.8072495" /><node id="1522566268" x="145.0293823" y="-37.8072739" /><node id="344806937" x="145.0251631" y="-37.813337" /><node id="1522566298" x="145.027659" y="-37.8072238" /><node id="376145063" x="144.976665" y="-37.8090663" /><node id="1522566317" x="145.0290832" y="-37.8073809" /><node id="2209383602" x="144.9581211" y="-37.795592" /><node id="1522566327" x="145.0272213" y="-37.8052454" /><node id="2247591096" x="145.0467282" y="-37.8010258" /><node id="2209383610" x="144.9575006" y="-37.7996797" /><node id="2247591099" x="145.0393531" y="-37.8037698" /><node id="1224869052" x="144.9407879" y="-37.8135499" /><node id="2247591101" x="145.0461477" y="-37.8012578" /><node id="2247591102" x="145.0449066" y="-37.8015671" /><node id="1224869056" x="144.9410974" y="-37.8134275" /><node id="1224869058" x="144.9408574" y="-37.8134657" /><node id="2247591108" x="145.0449145" y="-37.8015101" /><node id="2247591109" x="145.0394002" y="-37.8038341" /><node id="2247591111" x="145.0449219" y="-37.8016208" /><node id="304710860" x="145.0328418" y="-37.8223088" /><node id="2247591117" x="145.0459901" y="-37.8013141" /><node id="304710870" x="144.9347841" y="-37.8094097" /><node id="1522566359" x="145.030038" y="-37.8069534" /><node id="1522566362" x="145.0300527" y="-37.8069793" /><node id="250479836" x="145.0064662" y="-37.8111341" /><node id="2245788895" x="145.0573813" y="-37.8099937" /><node id="1224869091" x="144.9408048" y="-37.8134865" /><node id="1522566380" x="145.0300965" y="-37.8066332" /><node id="1522566381" x="145.028931" y="-37.8076495" /><node id="1522566382" x="145.0300353" y="-37.8069183" /><node id="2245788915" x="145.0469016" y="-37.8087332" /><node id="1522566389" x="145.0300326" y="-37.806936" /><node id="376145144" x="144.9783574" y="-37.8092433" /><node id="2245788924" x="145.0449397" y="-37.8084995" /><node id="2245788925" x="145.0560272" y="-37.8098308" /><node id="571835647" x="144.877003" y="-37.8159259" /><node id="571835648" x="144.876897" y="-37.8157966" /><node id="571835649" x="144.8766275" y="-37.8155508" /><node id="2245788930" x="145.057388" y="-37.8099602" /><node id="571835651" x="144.8761299" y="-37.8153135" /><node id="571835652" x="144.8759958" y="-37.8152139" /><node id="2245788933" x="145.0495395" y="-37.8090479" /><node id="571835654" x="144.8757611" y="-37.8149819" /><node id="571835659" x="144.8741142" y="-37.8143833" /><node id="571835660" x="144.8739922" y="-37.8143303" /><node id="2245788941" x="145.0388028" y="-37.8077627" /><node id="571835662" x="144.8738769" y="-37.8143166" /><node id="571835663" x="144.8735899" y="-37.8143378" /><node id="571835664" x="144.8733337" y="-37.8142488" /><node id="571835665" x="144.8730749" y="-37.8141576" /><node id="571835666" x="144.872977" y="-37.8140591" /><node id="571835667" x="144.8729515" y="-37.8138684" /><node id="777782548" x="144.9539442" y="-37.8035955" /><node id="250479896" x="145.0028707" y="-37.8175106" /><node id="571835673" x="144.8747152" y="-37.8145637" /><node id="571835674" x="144.874297" y="-37.8145198" /><node id="571835675" x="144.8744779" y="-37.8144519" /><node id="571835677" x="144.8756185" y="-37.8148421" /><node id="2841675038" x="144.9702257" y="-37.8006096" /><node id="2841675040" x="144.9689175" y="-37.8080366" /><node id="2841675044" x="144.9681941" y="-37.8082466" /><node id="2841675047" x="144.9664548" y="-37.8087515" /><node id="2841675052" x="144.9658354" y="-37.8089313" /><node id="2841675059" x="144.9639591" y="-37.809476" /><node id="2841675060" x="144.9632669" y="-37.8096656" /><node id="2841675061" x="144.9632948" y="-37.8096688" /><node id="30944137" x="144.9782577" y="-37.8097648" /><node id="571835711" x="144.8756125" y="-37.8149298" /><node id="348718400" x="144.894625" y="-37.8169634" /><node id="571835717" x="144.8764719" y="-37.8150265" /><node id="571835720" x="144.8765671" y="-37.8148135" /><node id="571835721" x="144.8766888" y="-37.814814" /><node id="2181268810" x="144.9590339" y="-37.8110279" /><node id="571835726" x="144.877282" y="-37.8157122" /><node id="2583201106" x="144.9904037" y="-37.8110699" /><node id="571835731" x="144.8770452" y="-37.8161857" /><node id="1994687832" x="144.9508937" y="-37.7994297" /><node id="390923610" x="144.9428803" y="-37.7959088" /><node id="4681001871" x="144.8918275" y="-37.8128816" /><node id="1994687836" x="144.9513761" y="-37.8000203" /><node id="2181268830" x="144.9663962" y="-37.808888" /><node id="2181268832" x="144.9638876" y="-37.8096177" /><node id="1994687844" x="144.9520798" y="-37.8004156" /><node id="589759848" x="144.9516461" y="-37.8217982" /><node id="348718456" x="144.8940547" y="-37.8168968" /><node id="250480014" x="145.0049929" y="-37.8120271" /><node id="1895925155" x="144.9592654" y="-37.8061852" /><node id="2170946980" x="144.9841272" y="-37.802047" /><node id="2245395882" x="145.0379885" y="-37.8085814" /><node id="777801210" x="144.955317" y="-37.8052831" /><node id="1525908932" x="144.9780021" y="-37.8232542" /><node id="291210708" x="144.9652396" y="-37.8060403" /><node id="291210710" x="144.9651055" y="-37.8068371" /><node id="291210712" x="144.9659231" y="-37.8061186" /><node id="777782745" x="144.9540899" y="-37.803768" /><node id="3721154043" x="145.0120453" y="-37.8136685" /><node id="2789606893" x="144.983113" y="-37.8027455" /><node id="2789606895" x="144.9830125" y="-37.8027353" /><node id="390923760" x="144.9423237" y="-37.7958514" /><node id="1525908983" x="144.9783733" y="-37.8231366" /><node id="3790964227" x="144.9170256" y="-37.8017011" /><node id="4148233732" x="144.9058047" y="-37.7960249" /><node id="4148233733" x="144.9059553" y="-37.795111" /><node id="518293021" x="145.0147186" y="-37.8202129" /><node id="296027680" x="144.9452685" y="-37.8118428" /><node id="291210792" x="144.9644642" y="-37.8059569" /><node id="1132070442" x="144.9433469" y="-37.8125431" /><node id="1132070443" x="144.9420656" y="-37.8119728" /><node id="3345188400" x="144.9695656" y="-37.8073327" /><node id="296027697" x="144.9447809" y="-37.8120306" /><node id="1132070451" x="144.9418662" y="-37.8118589" /><node id="1132070452" x="144.9394491" y="-37.8106761" /><node id="348718646" x="144.8947759" y="-37.814102" /><node id="296027706" x="144.946106" y="-37.8115266" /><node id="1132070461" x="144.9412566" y="-37.8116351" /><node id="266733118" x="144.9906716" y="-37.8110988" /><node id="296027713" x="144.9467488" y="-37.811306" /><node id="1132070467" x="144.9435681" y="-37.8125106" /><node id="1132070468" x="144.9432561" y="-37.81254" /><node id="1132070472" x="144.942872" y="-37.812447" /><node id="1132070481" x="144.9450824" y="-37.8119128" /><node id="608962132" x="144.9993645" y="-37.8078077" /><node id="1132070487" x="144.9424858" y="-37.8122231" /><node id="1132070489" x="144.9437448" y="-37.812462" /><node id="92243550" x="144.9314214" y="-37.7945633" /><node id="671319660" x="144.8874904" y="-37.8013041" /><node id="671319664" x="144.8875905" y="-37.801236" /><node id="671319670" x="144.8877132" y="-37.8010697" /><node id="608962167" x="145.0092403" y="-37.8041415" /><node id="608962168" x="145.0091654" y="-37.8036975" /><node id="671319673" x="144.8877397" y="-37.8009835" /><node id="608962176" x="145.0091497" y="-37.8031629" /><node id="4957734529" x="144.9455485" y="-37.808534" /><node id="608962181" x="145.0092333" y="-37.8029278" /><node id="608962182" x="145.0093187" y="-37.8028251" /><node id="608962183" x="145.0094138" y="-37.8028616" /><node id="608962184" x="145.0094388" y="-37.8028165" /><node id="3855648395" x="144.8721326" y="-37.8097017" /><node id="671319695" x="144.8880301" y="-37.7996159" /><node id="75105959" x="144.8972583" y="-37.7994945" /><node id="767592114" x="144.973188" y="-37.8083771" /><node id="767592115" x="144.9731558" y="-37.8085307" /><node id="767592116" x="144.9731464" y="-37.8086017" /><node id="777782973" x="144.9539765" y="-37.8044137" /><node id="777782984" x="144.9538293" y="-37.8043846" /><node id="266733258" x="144.978232" y="-37.8098985" /><node id="777759693" x="144.9572319" y="-37.8059582" /><node id="361268957" x="144.9778822" y="-37.7989968" /><node id="518293233" x="145.0146499" y="-37.8202199" /><node id="2612216109" x="144.8675799" y="-37.8114934" /><node id="2187986709" x="144.9718688" y="-37.8116391" /><node id="2187986713" x="144.9720366" y="-37.8115654" /><node id="709953306" x="144.936279" y="-37.8124537" /><node id="4443178785" x="144.9537937" y="-37.7985928" /><node id="4443178786" x="144.9530412" y="-37.7979905" /><node id="2931394341" x="144.8843437" y="-37.8010859" /><node id="3862791979" x="144.9832675" y="-37.8116974" /><node id="86673207" x="144.9307636" y="-37.7944882" /><node id="777783101" x="144.9539397" y="-37.8045987" /><node id="1479928149" x="144.9551146" y="-37.8208707" /><node id="777783111" x="144.9539079" y="-37.8047747" /><node id="1985546057" x="144.9665299" y="-37.8034919" /><node id="1985546060" x="144.9649319" y="-37.8033094" /><node id="1985546061" x="144.9650493" y="-37.8033228" /><node id="2199393936" x="144.9749889" y="-37.7979548" /><node id="3311863660" x="144.9927579" y="-37.7990823" /><node id="247007089" x="144.967153" y="-37.8097324" /><node id="777783157" x="144.9537634" y="-37.8047597" /><node id="247007096" x="144.9675642" y="-37.8096131" /><node id="390924167" x="144.9419845" y="-37.7958164" /><node id="224757641" x="144.9931365" y="-37.8072913" /><node id="390924170" x="144.9420272" y="-37.7960166" /><node id="390924171" x="144.9419843" y="-37.7959148" /><node id="304711576" x="145.0264889" y="-37.8208612" /><node id="4716365727" x="144.8954836" y="-37.8095038" /><node id="4716365728" x="144.8955132" y="-37.8104154" /><node id="4716365730" x="144.8957319" y="-37.8092248" /><node id="4716365731" x="144.8968536" y="-37.8080406" /><node id="4716365732" x="144.8969549" y="-37.8079607" /><node id="67617094" x="144.9201474" y="-37.7984668" /><node id="4716365735" x="144.8984356" y="-37.8064262" /><node id="4716365736" x="144.8995016" y="-37.8067317" /><node id="4716365737" x="144.9001913" y="-37.8069312" /><node id="462849962" x="145.0618432" y="-37.8104994" /><node id="224757682" x="144.9941797" y="-37.8073834" /><node id="250479885" x="145.0031212" y="-37.816325" /><node id="767592374" x="144.9733125" y="-37.8078938" /><node id="250480593" x="145.0050339" y="-37.8117701" /><node id="477304483" x="145.0152582" y="-37.8023251" /><node id="702351318" x="144.9365972" y="-37.804982" /><node id="702351321" x="144.9366579" y="-37.8051653" /><node id="250480602" x="145.0058842" y="-37.8118559" /><node id="250480609" x="145.0063192" y="-37.8111224" /><node id="67700706" x="144.9251621" y="-37.7914132" /><node id="304711651" x="145.0295023" y="-37.821188" /><node id="1517193203" x="144.9812741" y="-37.8235625" /><node id="304711672" x="145.03242" y="-37.8215402" /><node id="67644415" x="144.9221125" y="-37.7973397" /><node id="250480641" x="145.005486" y="-37.8110388" /><node id="3980971772" x="144.9494234" y="-37.8160795" /><node id="767592455" x="144.9733064" y="-37.8079299" /><node id="250480649" x="145.0047212" y="-37.8109632" /><node id="54396941" x="144.9487163" y="-37.8000242" /><node id="250480655" x="145.003222" y="-37.8108189" /><node id="777783313" x="144.9537365" y="-37.8049127" /><node id="3855648786" x="144.871208" y="-37.8101977" /><node id="304711699" x="145.0323091" y="-37.8222457" /><node id="250480666" x="145.0015254" y="-37.8106542" /><node id="250480669" x="145.0023363" y="-37.8107328" /><node id="356452387" x="144.9863214" y="-37.8052631" /><node id="54396965" x="144.9456149" y="-37.8018067" /><node id="54396972" x="144.9484374" y="-37.8015853" /><node id="634783795" x="144.9371999" y="-37.8136161" /><node id="54396984" x="144.94834" y="-37.8021346" /><node id="518293564" x="145.0160733" y="-37.8199255" /><node id="3529934913" x="144.9152586" y="-37.8077572" /><node id="518293570" x="145.0161653" y="-37.8199002" /><node id="518293574" x="145.0165771" y="-37.8199456" /><node id="3529934921" x="144.9144864" y="-37.8076796" /><node id="702351447" x="144.9377278" y="-37.8053775" /><node id="2005895266" x="144.9665068" y="-37.8028167" /><node id="2005895267" x="144.9657419" y="-37.8033302" /><node id="2005895268" x="144.9664039" y="-37.8033985" /><node id="4520380517" x="144.9562945" y="-37.8117009" /><node id="623023804" x="144.8981897" y="-37.807473" /><node id="4520380524" x="144.9572853" y="-37.8136573" /><node id="702351473" x="144.9379276" y="-37.8054443" /><node id="702351474" x="144.9383219" y="-37.8055895" /><node id="702351475" x="144.9388946" y="-37.8058215" /><node id="3189540981" x="144.8776746" y="-37.8197573" /><node id="3189540982" x="144.8672794" y="-37.8075778" /><node id="3189540983" x="144.866269" y="-37.8074825" /><node id="702351481" x="144.9408821" y="-37.8056711" /><node id="702351482" x="144.941098" y="-37.8055873" /><node id="702351483" x="144.941322" y="-37.8055005" /><node id="767592583" x="144.9732937" y="-37.808003" /><node id="4520380552" x="144.9610481" y="-37.8192474" /><node id="2023894041" x="144.9657967" y="-37.8047964" /><node id="3427731616" x="144.8848861" y="-37.8022907" /><node id="3427731617" x="144.8838244" y="-37.8022967" /><node id="390924452" x="144.9499459" y="-37.7975467" /><node id="244222120" x="144.9703117" y="-37.8006529" /><node id="244222122" x="144.9701248" y="-37.8005683" /><node id="244222123" x="144.9700381" y="-37.8005686" /><node id="244222124" x="144.9700813" y="-37.8005815" /><node id="4826317170" x="144.8994882" y="-37.8052901" /><node id="777783475" x="144.9538799" y="-37.8049294" /><node id="2358053046" x="144.9883343" y="-37.8133654" /><node id="244222136" x="144.9729845" y="-37.7976886" /><node id="2358053049" x="144.988423" y="-37.8133714" /><node id="2428766397" x="144.9847769" y="-37.7982665" /><node id="130045644" x="144.9096373" y="-37.8056977" /><node id="838386039" x="144.9494647" y="-37.8029899" /><node id="634783963" x="144.9361182" y="-37.8121791" /><node id="634783964" x="144.93608" y="-37.8119661" /><node id="634783966" x="144.9361316" y="-37.8116387" /><node id="906234081" x="145.0079732" y="-37.80211" /><node id="906234082" x="145.0060987" y="-37.801079" /><node id="906234083" x="145.0072282" y="-37.8017719" /><node id="906234084" x="145.0065842" y="-37.8013707" /><node id="906234085" x="145.0056016" y="-37.8008524" /><node id="906234086" x="145.0053962" y="-37.8007886" /><node id="906234087" x="145.003571" y="-37.8007826" /><node id="906234088" x="145.0075727" y="-37.8019309" /><node id="906234089" x="145.0048134" y="-37.8007309" /><node id="906234090" x="145.0091393" y="-37.8026077" /><node id="906234091" x="145.0070009" y="-37.8016431" /><node id="906234092" x="145.0062816" y="-37.8011834" /><node id="906234093" x="145.0067066" y="-37.8014382" /><node id="906234094" x="145.0058592" y="-37.8009496" /><node id="906234095" x="145.0032655" y="-37.8008536" /><node id="906234096" x="145.0067632" y="-37.8014828" /><node id="906234097" x="145.004988" y="-37.8007345" /><node id="906234098" x="145.0093351" y="-37.8026895" /><node id="906234099" x="145.0087633" y="-37.8024551" /><node id="305913668" x="145.0006353" y="-37.8019469" /><node id="777783546" x="144.953791" y="-37.805423" /><node id="777783548" x="144.9536501" y="-37.8054047" /><node id="838386048" x="144.9495215" y="-37.8031908" /><node id="316413655" x="144.9603619" y="-37.8093821" /><node id="4989913357" x="144.8823888" y="-37.8157503" /><node id="634784023" x="144.9366163" y="-37.8130111" /><node id="634784030" x="144.9363509" y="-37.8125724" /><node id="634784031" x="144.9362889" y="-37.81247" /><node id="634784034" x="144.9368117" y="-37.8133342" /><node id="781093174" x="145.0128635" y="-37.8136295" /><node id="781093179" x="145.0128488" y="-37.8135447" /><node id="781093184" x="145.0129051" y="-37.8134737" /><node id="781093191" x="145.0129601" y="-37.8132226" /><node id="443189603" x="145.0022575" y="-37.8193205" /><node id="2992212332" x="144.9737127" y="-37.8216678" /><node id="370477432" x="145.0195781" y="-37.806708" /><node id="420022665" x="144.9972062" y="-37.8096777" /><node id="420022666" x="144.9964897" y="-37.8115122" /><node id="2020813893" x="144.958338" y="-37.8099713" /><node id="420022688" x="144.9972169" y="-37.8095802" /><node id="1833142690" x="144.8847915" y="-37.8026842" /><node id="1833142692" x="144.8813224" y="-37.8020367" /><node id="1833142694" x="144.8816402" y="-37.8026089" /><node id="1833142699" x="144.8830631" y="-37.8037719" /><node id="1833142700" x="144.8814018" y="-37.8021716" /><node id="370477489" x="145.0184623" y="-37.8065809" /><node id="299024279" x="145.0107074" y="-37.8065438" /><node id="370477495" x="145.0170917" y="-37.8061147" /><node id="462850492" x="145.0630462" y="-37.8106435" /><node id="283334391" x="144.9511953" y="-37.8002758" /><node id="370477521" x="145.0185362" y="-37.8062119" /><node id="370477522" x="145.0172902" y="-37.8056929" /><node id="4413196757" x="144.9014334" y="-37.7999698" /><node id="4413196759" x="144.9020356" y="-37.8000376" /><node id="580160001" x="144.9368464" y="-37.7994828" /><node id="301542610" x="144.9511988" y="-37.8217418" /><node id="306383379" x="144.9417417" y="-37.8053733" /><node id="356092437" x="144.9989177" y="-37.8200099" /><node id="702351899" x="144.9370329" y="-37.8053403" /><node id="702351900" x="144.9370018" y="-37.8053743" /><node id="518294045" x="145.0166969" y="-37.8200119" /><node id="767658527" x="144.9732904" y="-37.8076272" /><node id="702351916" x="144.936819" y="-37.8052662" /><node id="4747758133" x="144.8967104" y="-37.814324" /><node id="4747758134" x="144.8967292" y="-37.8142432" /><node id="4747758135" x="144.8967373" y="-37.8142024" /><node id="4747758136" x="144.8967572" y="-37.8141826" /><node id="4747758137" x="144.8968022" y="-37.8141805" /><node id="4747758138" x="144.8968828" y="-37.814192" /><node id="4747758144" x="144.8971236" y="-37.813961" /><node id="4747758145" x="144.8971742" y="-37.8139595" /><node id="4747758146" x="144.8972476" y="-37.8139597" /><node id="4747758149" x="144.8969267" y="-37.8141983" /><node id="4747758150" x="144.8969159" y="-37.8141522" /><node id="4747758151" x="144.8969463" y="-37.8139934" /><node id="4747758152" x="144.8969595" y="-37.8139757" /><node id="4747758153" x="144.89699" y="-37.8139642" /><node id="767658571" x="144.9732695" y="-37.8076246" /><node id="368380517" x="144.9688795" y="-37.7988848" /><node id="781093481" x="144.949536" y="-37.8031001" /><node id="266734205" x="144.9734049" y="-37.8076698" /><node 