<edges><edge from="1928298965" id="1928298965_313441110" to="313441110" /><edge from="313441110" id="313441110_313440691" to="313440691" /><edge from="313440691" id="313440691_313441737" to="313441737" /><edge from="313441737" id="313441737_313254240" to="313254240" /><edge from="313254240" id="313254240_313139758" to="313139758" /><edge from="313139758" id="313139758_1928315581" to="1928315581" /><edge from="1928315581" id="1928315581_1928315592" to="1928315592" /><edge from="1928315592" id="1928315592_1928315579" to="1928315579" /><edge from="1928315579" id="1928315579_1928315589" to="1928315589" /><edge from="1928315589" id="1928315589_1928315553" to="1928315553" /><edge from="1928315553" id="1928315553_1928315555" to="1928315555" /><edge from="1928315555" id="1928315555_1928315558" to="1928315558" /><edge from="1928315558" id="1928315558_1928315573" to="1928315573" /><edge from="1928315573" id="1928315573_1928315552" to="1928315552" /><edge from="1928315552" id="1928315552_1928315586" to="1928315586" /><edge from="1928315586" id="1928315586_313139789" to="313139789" /><edge from="313139789" id="313139789_313254109" to="313254109" /><edge from="313254109" id="313254109_313139805" to="313139805" /><edge from="313139805" id="313139805_5045893640" to="5045893640" /><edge from="5045893640" id="5045893640_2245992484" to="2245992484" /><edge from="2245992484" id="2245992484_313139810" to="313139810" /><edge from="313139810" id="313139810_314457753" to="314457753" /><edge from="314457753" id="314457753_3494863649" to="3494863649" /><edge from="3494863649" id="3494863649_314461469" to="314461469" /><edge from="314461469" id="314461469_313139819" to="313139819" /><edge from="313139819" id="313139819_5045891610" to="5045891610" /><edge from="5045891610" id="5045891610_314456863" to="314456863" /><edge from="314456863" id="314456863_313139910" to="313139910" /><edge from="313139910" id="313139910_314456316" to="314456316" /><edge from="314456316" id="314456316_313139857" to="313139857" /><edge from="313139857" id="313139857_3494863650" to="3494863650" /><edge from="3494863650" id="3494863650_313139953" to="313139953" /><edge from="313139953" id="313139953_2381887355" to="2381887355" /><edge from="2381887355" id="2381887355_462844528" to="462844528" /><edge from="462844528" id="462844528_304705564" to="304705564" /><edge from="304705564" id="304705564_462850492" to="462850492" /><edge from="462850492" id="462850492_304705458" to="304705458" /><edge from="304705458" id="304705458_2245992601" to="2245992601" /><edge from="2245992601" id="2245992601_1928268659" to="1928268659" /><edge from="1928268659" id="1928268659_1928268655" to="1928268655" /><edge from="1928268655" id="1928268655_1928268665" to="1928268665" /><edge from="1928268665" id="1928268665_304705474" to="304705474" /><edge from="304705474" id="304705474_304704695" to="304704695" /><edge from="304704695" id="304704695_4142788514" to="4142788514" /><edge from="4142788514" id="4142788514_304704894" to="304704894" /><edge from="304704894" id="304704894_304705282" to="304705282" /><edge from="304705282" id="304705282_1328266774" to="1328266774" /><edge from="1328266774" id="1328266774_304704958" to="304704958" /><edge from="304704958" id="304704958_304705270" to="304705270" /><edge from="304705270" id="304705270_304704851" to="304704851" /><edge from="304704851" id="304704851_304705226" to="304705226" /><edge from="304705226" id="304705226_304705239" to="304705239" /><edge from="304705239" id="304705239_304705238" to="304705238" /><edge from="304705238" id="304705238_304705111" to="304705111" /><edge from="304705111" id="304705111_304704775" to="304704775" /><edge from="304704775" id="304704775_304704626" to="304704626" /><edge from="304704626" id="304704626_304704678" to="304704678" /><edge from="304704678" id="304704678_304704624" to="304704624" /><edge from="304704624" id="304704624_304704448" to="304704448" /><edge from="304704448" id="304704448_1800095332" to="1800095332" /><edge from="1800095332" id="1800095332_1800095333" to="1800095333" /><edge from="1800095333" id="1800095333_304718042" to="304718042" /><edge from="304718042" id="304718042_30948256" to="30948256" /><edge from="30948256" id="30948256_304701321" to="304701321" /><edge from="304701321" id="304701321_304715532" to="304715532" /><edge from="304715532" id="304715532_304701167" to="304701167" /><edge from="304701167" id="304701167_304715731" to="304715731" /><edge from="304715731" id="304715731_304701113" to="304701113" /><edge from="304701113" id="304701113_304701069" to="304701069" /><edge from="304701069" id="304701069_304715909" to="304715909" /><edge from="304715909" id="304715909_304715908" to="304715908" /><edge from="304715908" id="304715908_598491784" to="598491784" /><edge from="598491784" id="598491784_598491783" to="598491783" /><edge from="598491783" id="598491783_304715907" to="304715907" /><edge from="304715907" id="304715907_304715905" to="304715905" /><edge from="304715905" id="304715905_304716663" to="304716663" /><edge from="304716663" id="304716663_304715900" to="304715900" /><edge from="304715900" id="304715900_3500422088" to="3500422088" /><edge from="3500422088" id="3500422088_304715956" to="304715956" /><edge from="304715956" id="304715956_304712583" to="304712583" /><edge from="304712583" id="304712583_518303982" to="518303982" /><edge from="518303982" id="518303982_304712582" to="304712582" /><edge from="304712582" id="304712582_518304372" to="518304372" /><edge from="518304372" id="518304372_304712581" to="304712581" /><edge from="304712581" id="304712581_518304370" to="518304370" /><edge from="518304370" id="518304370_518304261" to="518304261" /><edge from="518304261" id="518304261_518304225" to="518304225" /><edge from="518304225" id="518304225_577063512" to="577063512" /><edge from="577063512" id="577063512_304712522" to="304712522" /><edge from="304712522" id="304712522_2381255964" to="2381255964" /><edge from="2381255964" id="2381255964_4918356710" to="4918356710" /><edge from="4918356710" id="4918356710_4918356709" to="4918356709" /><edge from="4918356709" id="4918356709_4169720804" to="4169720804" /><edge from="4169720804" id="4169720804_2381255958" to="2381255958" /><edge from="2381255958" id="2381255958_2381255971" to="2381255971" /><edge from="2381255971" id="2381255971_2381255957" to="2381255957" /><edge from="2381255957" id="2381255957_214110546" to="214110546" /><edge from="214110546" id="214110546_2242878873" to="2242878873" /><edge from="2242878873" id="2242878873_2241810964" to="2241810964" /><edge from="2241810964" id="2241810964_214118034" to="214118034" /><edge from="214118034" id="214118034_2397152883" to="2397152883" /><edge from="2397152883" id="2397152883_2397152889" to="2397152889" /><edge from="2397152889" id="2397152889_2397152887" to="2397152887" /><edge from="2397152887" id="2397152887_2397152885" to="2397152885" /><edge from="2397152885" id="2397152885_1533600401" to="1533600401" /><edge from="1533600401" id="1533600401_1533481707" to="1533481707" /><edge from="1533481707" id="1533481707_1533481701" to="1533481701" /><edge from="1533481701" id="1533481701_4283908892" to="4283908892" /><edge from="4283908892" id="4283908892_214117760" to="214117760" /><edge from="214117760" id="214117760_30221048" to="30221048" /><edge from="30221048" id="30221048_277362814" to="277362814" /><edge from="277362814" id="277362814_4283908187" to="4283908187" /><edge from="4283908187" id="4283908187_2241696406" to="2241696406" /><edge from="2241696406" id="2241696406_277362811" to="277362811" /><edge from="277362811" id="277362811_1546958636" to="1546958636" /><edge from="1546958636" id="1546958636_1546958634" to="1546958634" /><edge from="1546958634" id="1546958634_2241696401" to="2241696401" /><edge from="2241696401" id="2241696401_2978801845" to="2978801845" /><edge from="2978801845" id="2978801845_2978801848" to="2978801848" /><edge from="2978801848" id="2978801848_2978801846" to="2978801846" /><edge from="2978801846" id="2978801846_2978801847" to="2978801847" /><edge from="2978801847" id="2978801847_277362808" to="277362808" /><edge from="277362808" id="277362808_723980903" to="723980903" /><edge from="723980903" id="723980903_277362807" to="277362807" /><edge from="277362807" id="277362807_277362806" to="277362806" /><edge from="277362806" id="277362806_723980902" to="723980902" /><edge from="723980902" id="723980902_3394892452" to="3394892452" /><edge from="3394892452" id="3394892452_277362804" to="277362804" /><edge from="277362804" id="277362804_723976949" to="723976949" /><edge from="723976949" id="723976949_4283908179" to="4283908179" /><edge from="4283908179" id="4283908179_277362770" to="277362770" /><edge from="277362770" id="277362770_30948162" to="30948162" /><edge from="30948162" id="30948162_30948116" to="30948116" /><edge from="30948116" id="30948116_2013560660" to="2013560660" /><edge from="2013560660" id="2013560660_250479836" to="250479836" /><edge from="250479836" id="250479836_2236727840" to="2236727840" /><edge from="2236727840" id="2236727840_2481930755" to="2481930755" /><edge from="2481930755" id="2481930755_2481930754" to="2481930754" /><edge from="2481930754" id="2481930754_250480602" to="250480602" /><edge from="250480602" id="250480602_250480593" to="250480593" /><edge from="250480593" id="250480593_250480014" to="250480014" /><edge from="250480014" id="250480014_30947984" to="30947984" /><edge from="30947984" id="30947984_5167159984" to="5167159984" /><edge from="5167159984" id="5167159984_443302591" to="443302591" /><edge from="443302591" id="443302591_248746632" to="248746632" /><edge from="248746632" id="248746632_2692003116" to="2692003116" /><edge from="2692003116" id="2692003116_2692003115" to="2692003115" /><edge from="2692003115" id="2692003115_443299470" to="443299470" /><edge from="443299470" id="443299470_248746631" to="248746631" /><edge from="248746631" id="248746631_2072458656" to="2072458656" /><edge from="2072458656" id="2072458656_4315827362" to="4315827362" /><edge from="4315827362" id="4315827362_30947902" to="30947902" /><edge from="30947902" id="30947902_393114984" to="393114984" /><edge from="393114984" id="393114984_4283908176" to="4283908176" /><edge from="4283908176" id="4283908176_319617898" to="319617898" /><edge from="319617898" id="319617898_4283908171" to="4283908171" /><edge from="4283908171" id="4283908171_2239405641" to="2239405641" /><edge from="2239405641" id="2239405641_2239405642" to="2239405642" /><edge from="2239405642" id="2239405642_4283908169" to="4283908169" /><edge from="4283908169" id="4283908169_4283908167" to="4283908167" /><edge from="4283908167" id="4283908167_4283908165" to="4283908165" /><edge from="4283908165" id="4283908165_30947901" to="30947901" /><edge from="30947901" id="30947901_224765801" to="224765801" /><edge from="224765801" id="224765801_129952492" to="129952492" /><edge from="129952492" id="129952492_355818807" to="355818807" /><edge from="355818807" id="355818807_129953571" to="129953571" /><edge from="129953571" id="129953571_1404234340" to="1404234340" /><edge from="1404234340" id="1404234340_1404234341" to="1404234341" /><edge from="1404234341" id="1404234341_1404234339" to="1404234339" /><edge from="1404234339" id="1404234339_1404234343" to="1404234343" /><edge from="1404234343" id="1404234343_420022673" to="420022673" /><edge from="420022673" id="420022673_420022666" to="420022666" /><edge from="420022666" id="420022666_2072458655" to="2072458655" /><edge from="2072458655" id="2072458655_1519390577" to="1519390577" /><edge from="1519390577" id="1519390577_248746627" to="248746627" /><edge from="248746627" id="248746627_1519390567" to="1519390567" /><edge from="1519390567" id="1519390567_248746724" to="248746724" /><edge from="248746724" id="248746724_412776174" to="412776174" /><edge from="412776174" id="412776174_248746701" to="248746701" /><edge from="248746701" id="248746701_248746699" to="248746699" /><edge from="248746699" id="248746699_248746696" to="248746696" /><edge from="248746696" id="248746696_3683319253" to="3683319253" /><edge from="3683319253" id="3683319253_248746690" to="248746690" /><edge from="248746690" id="248746690_5257188983" to="5257188983" /><edge from="5257188983" id="5257188983_5257188984" to="5257188984" /><edge from="5257188984" id="5257188984_681284986" to="681284986" /><edge from="681284986" id="681284986_681284972" to="681284972" /><edge from="681284972" id="681284972_241807182" to="241807182" /><edge from="241807182" id="241807182_547587095" to="547587095" /><edge from="547587095" id="547587095_3144992709" to="3144992709" /><edge from="3144992709" id="3144992709_5257193652" to="5257193652" /><edge from="5257193652" id="5257193652_3144992712" to="3144992712" /><edge from="3144992712" id="3144992712_241807196" to="241807196" /><edge from="241807196" id="241807196_5257193653" to="5257193653" /><edge from="5257193653" id="5257193653_370750701" to="370750701" /><edge from="370750701" id="370750701_2358053045" to="2358053045" /><edge from="2358053045" id="2358053045_2358053043" to="2358053043" /><edge from="2358053043" id="2358053043_370750708" to="370750708" /><edge from="370750708" id="370750708_2358053039" to="2358053039" /><edge from="2358053039" id="2358053039_370750526" to="370750526" /><edge from="370750526" id="370750526_547586920" to="547586920" /><edge from="547586920" id="547586920_370752343" to="370752343" /><edge from="370752343" id="370752343_547568767" to="547568767" /><edge from="547568767" id="547568767_370752408" to="370752408" /><edge from="370752408" id="370752408_3146808071" to="3146808071" /><edge from="3146808071" id="3146808071_370749848" to="370749848" /><edge from="370749848" id="370749848_443298667" to="443298667" /><edge from="443298667" id="443298667_370751614" to="370751614" /><edge from="370751614" id="370751614_443298666" to="443298666" /><edge from="443298666" id="443298666_443298665" to="443298665" /><edge from="443298665" id="443298665_241807394" to="241807394" /><edge from="241807394" id="241807394_443298664" to="443298664" /><edge from="443298664" id="443298664_370751648" to="370751648" /><edge from="370751648" id="370751648_2696446375" to="2696446375" /><edge from="2696446375" id="2696446375_416832108" to="416832108" /><edge from="416832108" id="416832108_3146808061" to="3146808061" /><edge from="3146808061" id="3146808061_3146808070" to="3146808070" /><edge from="3146808070" id="3146808070_370749284" to="370749284" /><edge from="370749284" id="370749284_370749292" to="370749292" /><edge from="370749292" id="370749292_417273053" to="417273053" /><edge from="417273053" id="417273053_241807177" to="241807177" /><edge from="241807177" id="241807177_3462475906" to="3462475906" /><edge from="3462475906" id="3462475906_3146808099" to="3146808099" /><edge from="3146808099" id="3146808099_233578139" to="233578139" /><edge from="233578139" id="233578139_3146808100" to="3146808100" /><edge from="3146808100" id="3146808100_3146808102" to="3146808102" /><edge from="3146808102" id="3146808102_416817425" to="416817425" /><edge from="416817425" id="416817425_269335114" to="269335114" /><edge from="269335114" id="269335114_3419354759" to="3419354759" /><edge from="3419354759" id="3419354759_416817424" to="416817424" /><edge from="416817424" id="416817424_4248528827" to="4248528827" /><edge from="4248528827" id="4248528827_269335261" to="269335261" /><edge from="269335261" id="269335261_4283908127" to="4283908127" /><edge from="4283908127" id="4283908127_304893435" to="304893435" /><edge from="304893435" id="304893435_4283908125" to="4283908125" /><edge from="4283908125" id="4283908125_269335260" to="269335260" /><edge from="269335260" id="269335260_30945575" to="30945575" /><edge from="30945575" id="30945575_3419339847" to="3419339847" /><edge from="3419339847" id="3419339847_3937111753" to="3937111753" /><edge from="3937111753" id="3937111753_224750232" to="224750232" /><edge from="224750232" id="224750232_30287465" to="30287465" /><edge from="30287465" id="30287465_4283908117" to="4283908117" /><edge from="4283908117" id="4283908117_4283908116" to="4283908116" /><edge from="4283908116" id="4283908116_3419344105" to="3419344105" /><edge from="3419344105" id="3419344105_2189377523" to="2189377523" /><edge from="2189377523" id="2189377523_30945324" to="30945324" /><edge from="30945324" id="30945324_233274930" to="233274930" /><edge from="233274930" id="233274930_2096319043" to="2096319043" /><edge from="2096319043" id="2096319043_477079437" to="477079437" /><edge from="477079437" id="477079437_477079436" to="477079436" /><edge from="477079436" id="477079436_3937113664" to="3937113664" /><edge from="3937113664" id="3937113664_767665017" to="767665017" /><edge from="767665017" id="767665017_767587081" to="767587081" /><edge from="767587081" id="767587081_2384091376" to="2384091376" /><edge from="2384091376" id="2384091376_2384091375" to="2384091375" /><edge from="2384091375" id="2384091375_767584894" to="767584894" /><edge from="767584894" id="767584894_767661756" to="767661756" /><edge from="767661756" id="767661756_4000075641" to="4000075641" /><edge from="4000075641" id="4000075641_767582212" to="767582212" /><edge from="767582212" id="767582212_3937111755" to="3937111755" /><edge from="3937111755" id="3937111755_3933095114" to="3933095114" /><edge from="3933095114" id="3933095114_501027471" to="501027471" /><edge from="501027471" id="501027471_501027474" to="501027474" /><edge from="501027474" id="501027474_767584716" to="767584716" /><edge from="767584716" id="767584716_277089909" to="277089909" /><edge from="277089909" id="277089909_277089910" to="277089910" /><edge from="277089910" id="277089910_1691676483" to="1691676483" /><edge from="1691676483" id="1691676483_3933095111" to="3933095111" /><edge from="3933095111" id="3933095111_2181275336" to="2181275336" /><edge from="2181275336" id="2181275336_2841675040" to="2841675040" /><edge from="2841675040" id="2841675040_767584383" to="767584383" /><edge from="767584383" id="767584383_2181275344" to="2181275344" /><edge from="2181275344" id="2181275344_3367904416" to="3367904416" /><edge from="3367904416" id="3367904416_2841675044" to="2841675044" /><edge from="2841675044" id="2841675044_2181275328" to="2181275328" /><edge from="2181275328" id="2181275328_2841675047" to="2841675047" /><edge from="2841675047" id="2841675047_2181275335" to="2181275335" /><edge from="2181275335" id="2181275335_2181275340" to="2181275340" /><edge from="2181275340" id="2181275340_3367904414" to="3367904414" /><edge from="3367904414" id="3367904414_2841675052" to="2841675052" /><edge from="2841675052" id="2841675052_2841675051" to="2841675051" /><edge from="2841675051" id="2841675051_2291073966" to="2291073966" /><edge from="2291073966" id="2291073966_1985347051" to="1985347051" /><edge from="1985347051" id="1985347051_1725216941" to="1725216941" /><edge from="1725216941" id="1725216941_1900234217" to="1900234217" /><edge from="1900234217" id="1900234217_1725216922" to="1725216922" /><edge from="1725216922" id="1725216922_1725216871" to="1725216871" /><edge from="1725216871" id="1725216871_33675682" to="33675682" /><edge from="33675682" id="33675682_3933086388" to="3933086388" /><edge from="3933086388" id="3933086388_317535746" to="317535746" /><edge from="317535746" id="317535746_1492410147" to="1492410147" /><edge from="1492410147" id="1492410147_1492410163" to="1492410163" /><edge from="1492410163" id="1492410163_1492410198" to="1492410198" /><edge from="1492410198" id="1492410198_1492410214" to="1492410214" /><edge from="1492410214" id="1492410214_3933086393" to="3933086393" /><edge from="3933086393" id="3933086393_4005305751" to="4005305751" /><edge from="4005305751" id="4005305751_775942450" to="775942450" /><edge from="775942450" id="775942450_1900213541" to="1900213541" /><edge from="1900213541" id="1900213541_774547223" to="774547223" /><edge from="774547223" id="774547223_777771693" to="777771693" /><edge from="777771693" id="777771693_1725216852" to="1725216852" /><edge from="1725216852" id="1725216852_774546374" to="774546374" /><edge from="774546374" id="774546374_3933094360" to="3933094360" /><edge from="3933094360" id="3933094360_4876123727" to="4876123727" /><edge from="4876123727" id="4876123727_774546433" to="774546433" /><edge from="774546433" id="774546433_775933297" to="775933297" /><edge from="775933297" id="775933297_775946111" to="775946111" /><edge from="775946111" id="775946111_775945930" to="775945930" /><edge from="775945930" id="775945930_775933295" to="775933295" /><edge from="775933295" id="775933295_775933250" to="775933250" /><edge from="775933250" id="775933250_1895925155" to="1895925155" /><edge from="1895925155" id="1895925155_2991935464" to="2991935464" /><edge from="2991935464" id="2991935464_1691676440" to="1691676440" /><edge from="1691676440" id="1691676440_711359068" to="711359068" /><edge from="711359068" id="711359068_711369366" to="711369366" /><edge from="711369366" id="711369366_711358863" to="711358863" /><edge from="711358863" id="711358863_711358867" to="711358867" /><edge from="711358867" id="711358867_708717121" to="708717121" /><edge from="708717121" id="708717121_2991935465" to="2991935465" /><edge from="2991935465" id="2991935465_708717112" to="708717112" /><edge from="708717112" id="708717112_777753012" to="777753012" /><edge from="777753012" id="777753012_777753011" to="777753011" /><edge from="777753011" id="777753011_777745518" to="777745518" /><edge from="777745518" id="777745518_777753008" to="777753008" /><edge from="777753008" id="777753008_777753006" to="777753006" /><edge from="777753006" id="777753006_777793471" to="777793471" /><edge from="777793471" id="777793471_3215191979" to="3215191979" /><edge from="3215191979" id="3215191979_777793465" to="777793465" /><edge from="777793465" id="777793465_777793457" to="777793457" /><edge from="777793457" id="777793457_3215191973" to="3215191973" /><edge from="3215191973" id="3215191973_3215191976" to="3215191976" /><edge from="3215191976" id="3215191976_777793450" to="777793450" /><edge from="777793450" id="777793450_3306876681" to="3306876681" /><edge from="3306876681" id="3306876681_777790169" to="777790169" /><edge from="777790169" id="777790169_777790992" to="777790992" /><edge from="777790992" id="777790992_3306876680" to="3306876680" /><edge from="3306876680" id="3306876680_2266563663" to="2266563663" /><edge from="2266563663" id="2266563663_3306876678" to="3306876678" /><edge from="3306876678" id="3306876678_2266563642" to="2266563642" /><edge from="2266563642" id="2266563642_2266563651" to="2266563651" /><edge from="2266563651" id="2266563651_2266563639" to="2266563639" /><edge from="2266563639" id="2266563639_259616751" to="259616751" /><edge from="259616751" id="259616751_3215106490" to="3215106490" /><edge from="3215106490" id="3215106490_259616744" to="259616744" /><edge from="259616744" id="259616744_387153097" to="387153097" /><edge from="387153097" id="387153097_259616740" to="259616740" /><edge from="259616740" id="259616740_3394768954" to="3394768954" /><edge from="3394768954" id="3394768954_767584756" to="767584756" /><edge from="767584756" id="767584756_387153089" to="387153089" /><edge from="387153089" id="387153089_767584755" to="767584755" /><edge from="767584755" id="767584755_1686695079" to="1686695079" /><edge from="1686695079" id="1686695079_387153023" to="387153023" /><edge from="387153023" id="387153023_387153031" to="387153031" /><edge from="387153031" id="387153031_1686695075" to="1686695075" /><edge from="1686695075" id="1686695075_702463816" to="702463816" /><edge from="702463816" id="702463816_702461105" to="702461105" /><edge from="702461105" id="702461105_4735922441" to="4735922441" /><edge from="4735922441" id="4735922441_259617268" to="259617268" /><edge from="259617268" id="259617268_3394779112" to="3394779112" /><edge from="3394779112" id="3394779112_702460959" to="702460959" /><edge from="702460959" id="702460959_702460958" to="702460958" /><edge from="702460958" id="702460958_702460957" to="702460957" /><edge from="702460957" id="702460957_702460956" to="702460956" /><edge from="702460956" id="702460956_702460955" to="702460955" /><edge from="702460955" id="702460955_702460954" to="702460954" /><edge from="702460954" id="702460954_702460953" to="702460953" /><edge from="702460953" id="702460953_780982655" to="780982655" /><edge from="780982655" id="780982655_780982646" to="780982646" /><edge from="780982646" id="780982646_780979435" to="780979435" /><edge from="780979435" id="780979435_702465424" to="702465424" /><edge from="702465424" id="702465424_702465421" to="702465421" /><edge from="702465421" id="702465421_702459929" to="702459929" /><edge from="702459929" id="702459929_287629445" to="287629445" /><edge from="287629445" id="287629445_702459892" to="702459892" /><edge from="702459892" id="702459892_702459975" to="702459975" /><edge from="702459975" id="702459975_702459973" to="702459973" /><edge from="702459973" id="702459973_43251976" to="43251976" /><edge from="43251976" id="43251976_287629431" to="287629431" /><edge from="287629431" id="287629431_702478647" to="702478647" /><edge from="702478647" id="702478647_287629433" to="287629433" /><edge from="287629433" id="287629433_287629437" to="287629437" /><edge from="287629437" id="287629437_572005110" to="572005110" /><edge from="572005110" id="572005110_3094966842" to="3094966842" /><edge from="3094966842" id="3094966842_572004507" to="572004507" /><edge from="572004507" id="572004507_287630668" to="287630668" /><edge from="287630668" id="287630668_287630670" to="287630670" /><edge from="287630670" id="287630670_287630661" to="287630661" /><edge from="287630661" id="287630661_387152942" to="387152942" /><edge from="387152942" id="387152942_702451433" to="702451433" /><edge from="702451433" id="702451433_3394764077" to="3394764077" /><edge from="3394764077" id="3394764077_702478083" to="702478083" /><edge from="702478083" id="702478083_702451442" to="702451442" /><edge from="702451442" id="702451442_702451772" to="702451772" /><edge from="702451772" id="702451772_287630734" to="287630734" /><edge from="287630734" id="287630734_702450201" to="702450201" /><edge from="702450201" id="702450201_4633573547" to="4633573547" /><edge from="4633573547" id="4633573547_4633573546" to="4633573546" /><edge from="4633573546" id="4633573546_287630739" to="287630739" /><edge from="287630739" id="287630739_4633573544" to="4633573544" /><edge from="4633573544" id="4633573544_702378611" to="702378611" /><edge from="702378611" id="702378611_332544824" to="332544824" /><edge from="332544824" id="332544824_332543902" to="332543902" /><edge from="332543902" id="332543902_30942256" to="30942256" /><edge from="30942256" id="30942256_3394781451" to="3394781451" /><edge from="3394781451" id="3394781451_702354049" to="702354049" /><edge from="702354049" id="702354049_702354038" to="702354038" /><edge from="702354038" id="702354038_702354305" to="702354305" /><edge from="702354305" id="702354305_702354312" to="702354312" /><edge from="702354312" id="702354312_702354310" to="702354310" /><edge from="702354310" id="702354310_387153022" to="387153022" /><edge from="387153022" id="387153022_702363502" to="702363502" /><edge from="702363502" id="702363502_305106978" to="305106978" /><edge from="305106978" id="305106978_702363737" to="702363737" /><edge from="702363737" id="702363737_702376281" to="702376281" /><edge from="702376281" id="702376281_702364058" to="702364058" /><edge from="702364058" id="702364058_702364059" to="702364059" /><edge from="702364059" id="702364059_702364060" to="702364060" /><edge from="702364060" id="702364060_702352360" to="702352360" /><edge from="702352360" id="702352360_702352370" to="702352370" /><edge from="702352370" id="702352370_702352371" to="702352371" /><edge from="702352371" id="702352371_702352372" to="702352372" /><edge from="702352372" id="702352372_702352412" to="702352412" /><edge from="702352412" id="702352412_702352413" to="702352413" /><edge from="702352413" id="702352413_702352414" to="702352414" /><edge from="702352414" id="702352414_702352415" to="702352415" /><edge from="702352415" id="702352415_702352416" to="702352416" /><edge from="702352416" id="702352416_702352417" to="702352417" /><edge from="702352417" id="702352417_702352418" to="702352418" /><edge from="702352418" id="702352418_702352419" to="702352419" /><edge from="702352419" id="702352419_702352420" to="702352420" /><edge from="702352420" id="702352420_702352421" to="702352421" /><edge from="702352421" id="702352421_702352422" to="702352422" /><edge from="702352422" id="702352422_702352423" to="702352423" /><edge from="702352423" id="702352423_702352424" to="702352424" /><edge from="702352424" id="702352424_702352425" to="702352425" /><edge from="702352425" id="702352425_702352426" to="702352426" /><edge from="702352426" id="702352426_702352427" to="702352427" /><edge from="702352427" id="702352427_702352428" to="702352428" /><edge from="702352428" id="702352428_702352429" to="702352429" /><edge from="702352429" id="702352429_702352430" to="702352430" /><edge from="702352430" id="702352430_702352401" to="702352401" /><edge from="702352401" id="702352401_3790949315" to="3790949315" /><edge from="3790949315" id="3790949315_3790949322" to="3790949322" /><edge from="3790949322" id="3790949322_3790949316" to="3790949316" /><edge from="3790949316" id="3790949316_702351899" to="702351899" /><edge from="702351899" id="702351899_1833875775" to="1833875775" /><edge from="1833875775" id="1833875775_3555805912" to="3555805912" /><edge from="3555805912" id="3555805912_4273053908" to="4273053908" /><edge from="4273053908" id="4273053908_3790949317" to="3790949317" /><edge from="3790949317" id="3790949317_3790949307" to="3790949307" /><edge from="3790949307" id="3790949307_130040068" to="130040068" /><edge from="130040068" i