<edges><edge from="1928298965" id="1928298965_313441047" to="313441047" /><edge from="313441047" id="313441047_313440696" to="313440696" /><edge from="313440696" id="313440696_313254247" to="313254247" /><edge from="313254247" id="313254247_313254248" to="313254248" /><edge from="313254248" id="313254248_313254135" to="313254135" /><edge from="313254135" id="313254135_313254237" to="313254237" /><edge from="313254237" id="313254237_313254107" to="313254107" /><edge from="313254107" id="313254107_313254089" to="313254089" /><edge from="313254089" id="313254089_313140253" to="313140253" /><edge from="313140253" id="313140253_313140004" to="313140004" /><edge from="313140004" id="313140004_313140309" to="313140309" /><edge from="313140309" id="313140309_313140381" to="313140381" /><edge from="313140381" id="313140381_313140108" to="313140108" /><edge from="313140108" id="313140108_670001388" to="670001388" /><edge from="670001388" id="670001388_313140003" to="313140003" /><edge from="313140003" id="313140003_4889662608" to="4889662608" /><edge from="4889662608" id="4889662608_313140000" to="313140000" /><edge from="313140000" id="313140000_310001316" to="310001316" /><edge from="310001316" id="310001316_5315879306" to="5315879306" /><edge from="5315879306" id="5315879306_310001318" to="310001318" /><edge from="310001318" id="310001318_530329329" to="530329329" /><edge from="530329329" id="530329329_530329237" to="530329237" /><edge from="530329237" id="530329237_891118965" to="891118965" /><edge from="891118965" id="891118965_530329116" to="530329116" /><edge from="530329116" id="530329116_604125630" to="604125630" /><edge from="604125630" id="604125630_604125629" to="604125629" /><edge from="604125629" id="604125629_263991627" to="263991627" /><edge from="263991627" id="263991627_604125627" to="604125627" /><edge from="604125627" id="604125627_604125569" to="604125569" /><edge from="604125569" id="604125569_604125568" to="604125568" /><edge from="604125568" id="604125568_604125566" to="604125566" /><edge from="604125566" id="604125566_604125565" to="604125565" /><edge from="604125565" id="604125565_247297073" to="247297073" /><edge from="247297073" id="247297073_604125564" to="604125564" /><edge from="604125564" id="604125564_263991626" to="263991626" /><edge from="263991626" id="263991626_604125563" to="604125563" /><edge from="604125563" id="604125563_247297074" to="247297074" /><edge from="247297074" id="247297074_604125561" to="604125561" /><edge from="604125561" id="604125561_604125560" to="604125560" /><edge from="604125560" id="604125560_5315895600" to="5315895600" /><edge from="5315895600" id="5315895600_247297075" to="247297075" /><edge from="247297075" id="247297075_5315895599" to="5315895599" /><edge from="5315895599" id="5315895599_604125504" to="604125504" /><edge from="604125504" id="604125504_604125503" to="604125503" /><edge from="604125503" id="604125503_604125472" to="604125472" /><edge from="604125472" id="604125472_604125471" to="604125471" /><edge from="604125471" id="604125471_604125491" to="604125491" /><edge from="604125491" id="604125491_263991631" to="263991631" /><edge from="263991631" id="263991631_3951079467" to="3951079467" /><edge from="3951079467" id="3951079467_309977587" to="309977587" /><edge from="309977587" id="309977587_263991611" to="263991611" /><edge from="263991611" id="263991611_309977442" to="309977442" /><edge from="309977442" id="309977442_309977425" to="309977425" /><edge from="309977425" id="309977425_263991609" to="263991609" /><edge from="263991609" id="263991609_1657066768" to="1657066768" /><edge from="1657066768" id="1657066768_4679496733" to="4679496733" /><edge from="4679496733" id="4679496733_1657066780" to="1657066780" /><edge from="1657066780" id="1657066780_1657066700" to="1657066700" /><edge from="1657066700" id="1657066700_1657066749" to="1657066749" /><edge from="1657066749" id="1657066749_1657066765" to="1657066765" /><edge from="1657066765" id="1657066765_1657066770" to="1657066770" /><edge from="1657066770" id="1657066770_1657066724" to="1657066724" /><edge from="1657066724" id="1657066724_4679496786" to="4679496786" /><edge from="4679496786" id="4679496786_3811090737" to="3811090737" /><edge from="3811090737" id="3811090737_4679496788" to="4679496788" /><edge from="4679496788" id="4679496788_4679496889" to="4679496889" /><edge from="4679496889" id="4679496889_4679496890" to="4679496890" /><edge from="4679496890" id="4679496890_4679496891" to="4679496891" /><edge from="4679496891" id="4679496891_4679496783" to="4679496783" /><edge from="4679496783" id="4679496783_4679496782" to="4679496782" /><edge from="4679496782" id="4679496782_995942478" to="995942478" /><edge from="995942478" id="995942478_2247591096" to="2247591096" /><edge from="2247591096" id="2247591096_127390268" to="127390268" /><edge from="127390268" id="127390268_2247672420" to="2247672420" /><edge from="2247672420" id="2247672420_4679496898" to="4679496898" /><edge from="4679496898" id="4679496898_2247591101" to="2247591101" /><edge from="2247591101" id="2247591101_2247672417" to="2247672417" /><edge from="2247672417" id="2247672417_2247591117" to="2247591117" /><edge from="2247591117" id="2247591117_876910906" to="876910906" /><edge from="876910906" id="876910906_309984697" to="309984697" /><edge from="309984697" id="309984697_21643741" to="21643741" /><edge from="21643741" id="21643741_309989573" to="309989573" /><edge from="309989573" id="309989573_309989084" to="309989084" /><edge from="309989084" id="309989084_1657067339" to="1657067339" /><edge from="1657067339" id="1657067339_309988225" to="309988225" /><edge from="309988225" id="309988225_2247662465" to="2247662465" /><edge from="2247662465" id="2247662465_1657067341" to="1657067341" /><edge from="1657067341" id="1657067341_309971077" to="309971077" /><edge from="309971077" id="309971077_309985025" to="309985025" /><edge from="309985025" id="309985025_309970358" to="309970358" /><edge from="309970358" id="309970358_309970191" to="309970191" /><edge from="309970191" id="309970191_2080740198" to="2080740198" /><edge from="2080740198" id="2080740198_3207124707" to="3207124707" /><edge from="3207124707" id="3207124707_309969854" to="309969854" /><edge from="309969854" id="309969854_309981741" to="309981741" /><edge from="309981741" id="309981741_309969575" to="309969575" /><edge from="309969575" id="309969575_2245347107" to="2245347107" /><edge from="2245347107" id="2245347107_309969348" to="309969348" /><edge from="309969348" id="309969348_309969259" to="309969259" /><edge from="309969259" id="309969259_304701495" to="304701495" /><edge from="304701495" id="304701495_304701503" to="304701503" /><edge from="304701503" id="304701503_3224362684" to="3224362684" /><edge from="3224362684" id="3224362684_1487228141" to="1487228141" /><edge from="1487228141" id="1487228141_1487228084" to="1487228084" /><edge from="1487228084" id="1487228084_1487228003" to="1487228003" /><edge from="1487228003" id="1487228003_1487228036" to="1487228036" /><edge from="1487228036" id="1487228036_1487228148" to="1487228148" /><edge from="1487228148" id="1487228148_1487228031" to="1487228031" /><edge from="1487228031" id="1487228031_4169720288" to="4169720288" /><edge from="4169720288" id="4169720288_1487227988" to="1487227988" /><edge from="1487227988" id="1487227988_29936553" to="29936553" /><edge from="29936553" id="29936553_4169720259" to="4169720259" /><edge from="4169720259" id="4169720259_309978787" to="309978787" /><edge from="309978787" id="309978787_4288151637" to="4288151637" /><edge from="4288151637" id="4288151637_1522566362" to="1522566362" /><edge from="1522566362" id="1522566362_1522834394" to="1522834394" /><edge from="1522834394" id="1522834394_1522566359" to="1522566359" /><edge from="1522566359" id="1522566359_1522566389" to="1522566389" /><edge from="1522566389" id="1522566389_1522566382" to="1522566382" /><edge from="1522566382" id="1522566382_1522566380" to="1522566380" /><edge from="1522566380" id="1522566380_1522566247" to="1522566247" /><edge from="1522566247" id="1522566247_1522566154" to="1522566154" /><edge from="1522566154" id="1522566154_1522566120" to="1522566120" /><edge from="1522566120" id="1522566120_1522566282" to="1522566282" /><edge from="1522566282" id="1522566282_1522834348" to="1522834348" /><edge from="1522834348" id="1522834348_210772014" to="210772014" /><edge from="210772014" id="210772014_1487228045" to="1487228045" /><edge from="1487228045" id="1487228045_31477199" to="31477199" /><edge from="31477199" id="31477199_1487228165" to="1487228165" /><edge from="1487228165" id="1487228165_127416559" to="127416559" /><edge from="127416559" id="127416559_537510271" to="537510271" /><edge from="537510271" id="537510271_1487227942" to="1487227942" /><edge from="1487227942" id="1487227942_1487227922" to="1487227922" /><edge from="1487227922" id="1487227922_1487227980" to="1487227980" /><edge from="1487227980" id="1487227980_537510288" to="537510288" /><edge from="537510288" id="537510288_1522834459" to="1522834459" /><edge from="1522834459" id="1522834459_1522834387" to="1522834387" /><edge from="1522834387" id="1522834387_1522834443" to="1522834443" /><edge from="1522834443" id="1522834443_1522834363" to="1522834363" /><edge from="1522834363" id="1522834363_1522834358" to="1522834358" /><edge from="1522834358" id="1522834358_1522834390" to="1522834390" /><edge from="1522834390" id="1522834390_1522839071" to="1522839071" /><edge from="1522839071" id="1522839071_1522834368" to="1522834368" /><edge from="1522834368" id="1522834368_1522566181" to="1522566181" /><edge from="1522566181" id="1522566181_304700483" to="304700483" /><edge from="304700483" id="304700483_3205511506" to="3205511506" /><edge from="3205511506" id="3205511506_3205511507" to="3205511507" /><edge from="3205511507" id="3205511507_214092423" to="214092423" /><edge from="214092423" id="214092423_214092402" to="214092402" /><edge from="214092402" id="214092402_304700571" to="304700571" /><edge from="304700571" id="304700571_214092382" to="214092382" /><edge from="214092382" id="214092382_1705365719" to="1705365719" /><edge from="1705365719" id="1705365719_1426680625" to="1426680625" /><edge from="1426680625" id="1426680625_1426680623" to="1426680623" /><edge from="1426680623" id="1426680623_1426680632" to="1426680632" /><edge from="1426680632" id="1426680632_1426680635" to="1426680635" /><edge from="1426680635" id="1426680635_1426680634" to="1426680634" /><edge from="1426680634" id="1426680634_1426680629" to="1426680629" /><edge from="1426680629" id="1426680629_1426680640" to="1426680640" /><edge from="1426680640" id="1426680640_1426680638" to="1426680638" /><edge from="1426680638" id="1426680638_1426680628" to="1426680628" /><edge from="1426680628" id="1426680628_214092345" to="214092345" /><edge from="214092345" id="214092345_214092328" to="214092328" /><edge from="214092328" id="214092328_214092311" to="214092311" /><edge from="214092311" id="214092311_2421353393" to="2421353393" /><edge from="2421353393" id="2421353393_2421353374" to="2421353374" /><edge from="2421353374" id="2421353374_214124424" to="214124424" /><edge from="214124424" id="214124424_2421353387" to="2421353387" /><edge from="2421353387" id="2421353387_2421353388" to="2421353388" /><edge from="2421353388" id="2421353388_2421353395" to="2421353395" /><edge from="2421353395" id="2421353395_2421353381" to="2421353381" /><edge from="2421353381" id="2421353381_2421353394" to="2421353394" /><edge from="2421353394" id="2421353394_2421353390" to="2421353390" /><edge from="2421353390" id="2421353390_214092477" to="214092477" /><edge from="214092477" id="214092477_214092481" to="214092481" /><edge from="214092481" id="214092481_541122878" to="541122878" /><edge from="541122878" id="541122878_31477183" to="31477183" /><edge from="31477183" id="31477183_5546311686" to="5546311686" /><edge from="5546311686" id="5546311686_740374973" to="740374973" /><edge from="740374973" id="740374973_114268737" to="114268737" /><edge from="114268737" id="114268737_299026732" to="299026732" /><edge from="299026732" id="299026732_2567155992" to="2567155992" /><edge from="2567155992" id="2567155992_541122843" to="541122843" /><edge from="541122843" id="541122843_608962184" to="608962184" /><edge from="608962184" id="608962184_541122905" to="541122905" /><edge from="541122905" id="541122905_906234098" to="906234098" /><edge from="906234098" id="906234098_906234090" to="906234090" /><edge from="906234090" id="906234090_906234099" to="906234099" /><edge from="906234099" id="906234099_906234081" to="906234081" /><edge from="906234081" id="906234081_906234088" to="906234088" /><edge from="906234088" id="906234088_906234083" to="906234083" /><edge from="906234083" id="906234083_906234091" to="906234091" /><edge from="906234091" id="906234091_906234096" to="906234096" /><edge from="906234096" id="906234096_906234093" to="906234093" /><edge from="906234093" id="906234093_128893036" to="128893036" /><edge from="128893036" id="128893036_31477178" to="31477178" /><edge from="31477178" id="31477178_31477177" to="31477177" /><edge from="31477177" id="31477177_31477176" to="31477176" /><edge from="31477176" id="31477176_4698484056" to="4698484056" /><edge from="4698484056" id="4698484056_561538868" to="561538868" /><edge from="561538868" id="561538868_31477175" to="31477175" /><edge from="31477175" id="31477175_305909758" to="305909758" /><edge from="305909758" id="305909758_31477174" to="31477174" /><edge from="31477174" id="31477174_906234095" to="906234095" /><edge from="906234095" id="906234095_3067843936" to="3067843936" /><edge from="3067843936" id="3067843936_827113739" to="827113739" /><edge from="827113739" id="827113739_128874949" to="128874949" /><edge from="128874949" id="128874949_4698523258" to="4698523258" /><edge from="4698523258" id="4698523258_128874985" to="128874985" /><edge from="128874985" id="128874985_305913666" to="305913666" /><edge from="305913666" id="305913666_151451933" to="151451933" /><edge from="151451933" id="151451933_305913661" to="305913661" /><edge from="305913661" id="305913661_305913663" to="305913663" /><edge from="305913663" id="305913663_128882514" to="128882514" /><edge from="128882514" id="128882514_1519470746" to="1519470746" /><edge from="1519470746" id="1519470746_31477172" to="31477172" /><edge from="31477172" id="31477172_1519471034" to="1519471034" /><edge from="1519471034" id="1519471034_319860976" to="319860976" /><edge from="319860976" id="319860976_385026689" to="385026689" /><edge from="385026689" id="385026689_128882501" to="128882501" /><edge from="128882501" id="128882501_129279518" to="129279518" /><edge from="129279518" id="129279518_1033063252" to="1033063252" /><edge from="1033063252" id="1033063252_129279537" to="129279537" /><edge from="129279537" id="129279537_385026714" to="385026714" /><edge from="385026714" id="385026714_129279833" to="129279833" /><edge from="129279833" id="129279833_2005992020" to="2005992020" /><edge from="2005992020" id="2005992020_128876884" to="128876884" /><edge from="128876884" id="128876884_2005995564" to="2005995564" /><edge from="2005995564" id="2005995564_128876893" to="128876893" /><edge from="128876893" id="128876893_746340967" to="746340967" /><edge from="746340967" id="746340967_3121574837" to="3121574837" /><edge from="3121574837" id="3121574837_746340949" to="746340949" /><edge from="746340949" id="746340949_129291065" to="129291065" /><edge from="129291065" id="129291065_583473314" to="583473314" /><edge from="583473314" id="583473314_3830161559" to="3830161559" /><edge from="3830161559" id="3830161559_224763560" to="224763560" /><edge from="224763560" id="224763560_224757682" to="224757682" /><edge from="224757682" id="224757682_224761673" to="224761673" /><edge from="224761673" id="224761673_224757641" to="224757641" /><edge from="224757641" id="224757641_224761617" to="224761617" /><edge from="224761617" id="224761617_224738476" to="224738476" /><edge from="224738476" id="224738476_222958329" to="222958329" /><edge from="222958329" id="222958329_248969196" to="248969196" /><edge from="248969196" id="248969196_222957430" to="222957430" /><edge from="222957430" id="222957430_223007282" to="223007282" /><edge from="223007282" id="223007282_493051199" to="493051199" /><edge from="493051199" id="493051199_493051200" to="493051200" /><edge from="493051200" id="493051200_3054477759" to="3054477759" /><edge from="3054477759" id="3054477759_2859255484" to="2859255484" /><edge from="2859255484" id="2859255484_356471554" to="356471554" /><edge from="356471554" id="356471554_356448968" to="356448968" /><edge from="356448968" id="356448968_356449290" to="356449290" /><edge from="356449290" id="356449290_356448987" to="356448987" /><edge from="356448987" id="356448987_301548222" to="301548222" /><edge from="301548222" id="301548222_372999711" to="372999711" /><edge from="372999711" id="372999711_222975383" to="222975383" /><edge from="222975383" id="222975383_332152166" to="332152166" /><edge from="332152166" id="332152166_3775020762" to="3775020762" /><edge from="3775020762" id="3775020762_332152172" to="332152172" /><edge from="332152172" id="332152172_4936948366" to="4936948366" /><edge from="4936948366" id="4936948366_3775019752" to="3775019752" /><edge from="3775019752" id="3775019752_233555341" to="233555341" /><edge from="233555341" id="233555341_2485925265" to="2485925265" /><edge from="2485925265" id="2485925265_527842694" to="527842694" /><edge from="527842694" id="527842694_30220702" to="30220702" /><edge from="30220702" id="30220702_224750434" to="224750434" /><edge from="224750434" id="224750434_224750388" to="224750388" /><edge from="224750388" id="224750388_2358071077" to="2358071077" /><edge from="2358071077" id="2358071077_628761345" to="628761345" /><edge from="628761345" id="628761345_2368035914" to="2368035914" /><edge from="2368035914" id="2368035914_269335260" to="269335260" /><edge from="269335260" id="269335260_30945575" to="30945575" /><edge from="30945575" id="30945575_3419339847" to="3419339847" /><edge from="3419339847" id="3419339847_3937111753" to="3937111753" /><edge from="3937111753" id="3937111753_224750232" to="224750232" /><edge from="224750232" id="224750232_30287465" to="30287465" /><edge from="30287465" id="30287465_3419344120" to="3419344120" /><edge from="3419344120" id="3419344120_3419344115" to="3419344115" /><edge from="3419344115" id="3419344115_4283908115" to="4283908115" /><edge from="4283908115" id="4283908115_2189358931" to="2189358931" /><edge from="2189358931" id="2189358931_2318333325" to="2318333325" /><edge from="2318333325" id="2318333325_2189358929" to="2189358929" /><edge from="2189358929" id="2189358929_2189358901" to="2189358901" /><edge from="2189358901" id="2189358901_4297530214" to="4297530214" /><edge from="4297530214" id="4297530214_30287464" to="30287464" /><edge from="30287464" id="30287464_4297530210" to="4297530210" /><edge from="4297530210" id="4297530210_652430413" to="652430413" /><edge from="652430413" id="652430413_233275077" to="233275077" /><edge from="233275077" id="233275077_652430415" to="652430415" /><edge from="652430415" id="652430415_233314824" to="233314824" /><edge from="233314824" id="233314824_4294474621" to="4294474621" /><edge from="4294474621" id="4294474621_2200514713" to="2200514713" /><edge from="2200514713" id="2200514713_2797986652" to="2797986652" /><edge from="2797986652" id="2797986652_4294474620" to="4294474620" /><edge from="4294474620" id="4294474620_2797986650" to="2797986650" /><edge from="2797986650" id="2797986650_4294474622" to="4294474622" /><edge from="4294474622" id="4294474622_2797986651" to="2797986651" /><edge from="2797986651" id="2797986651_2200514710" to="2200514710" /><edge from="2200514710" id="2200514710_767710278" to="767710278" /><edge from="767710278" id="767710278_371960982" to="371960982" /><edge from="371960982" id="371960982_371972632" to="371972632" /><edge from="371972632" id="371972632_493873197" to="493873197" /><edge from="493873197" id="493873197_493873198" to="493873198" /><edge from="493873198" id="493873198_214146420" to="214146420" /><edge from="214146420" id="214146420_767594764" to="767594764" /><edge from="767594764" id="767594764_767594759" to="767594759" /><edge from="767594759" id="767594759_767594763" to="767594763" /><edge from="767594763" id="767594763_214146325" to="214146325" /><edge from="214146325" id="214146325_566892219" to="566892219" /><edge from="566892219" id="566892219_371973419" to="371973419" /><edge from="371973419" id="371973419_371964317" to="371964317" /><edge from="371964317" id="371964317_767752596" to="767752596" /><edge from="767752596" id="767752596_3199635545" to="3199635545" /><edge from="3199635545" id="3199635545_30943327" to="30943327" /><edge from="30943327" id="30943327_34160610" to="34160610" /><edge from="34160610" id="34160610_3933097956" to="3933097956" /><edge from="3933097956" id="3933097956_767671809" to="767671809" /><edge from="767671809" id="767671809_319157918" to="319157918" /><edge from="319157918" id="319157918_767671454" to="767671454" /><edge from="767671454" id="767671454_319157922" to="319157922" /><edge from="319157922" id="319157922_30943326" to="30943326" /><edge from="30943326" id="30943326_30287383" to="30287383" /><edge from="30287383" id="30287383_3933097953" to="3933097953" /><edge from="3933097953" id="3933097953_319157881" to="319157881" /><edge from="319157881" id="319157881_471341054" to="471341054" /><edge from="471341054" id="471341054_30943325" to="30943325" /><edge from="30943325" id="30943325_1985549836" to="1985549836" /><edge from="1985549836" id="1985549836_3933090380" to="3933090380" /><edge from="3933090380" id="3933090380_2023894041" to="2023894041" /><edge from="2023894041" id="2023894041_317536476" to="317536476" /><edge from="317536476" id="317536476_1725216746" to="1725216746" /><edge from="1725216746" id="1725216746_3933090549" to="3933090549" /><edge from="3933090549" id="3933090549_1725216706" to="1725216706" /><edge from="1725216706" id="1725216706_1725216611" to="1725216611" /><edge from="1725216611" id="1725216611_356215182" to="356215182" /><edge from="356215182" id="356215182_356215176" to="356215176" /><edge from="356215176" id="356215176_356215189" to="356215189" /><edge from="356215189" id="356215189_4719566474" to="4719566474" /><edge from="4719566474" id="4719566474_1492410155" to="1492410155" /><edge from="1492410155" id="1492410155_1900234214" to="1900234214" /><edge from="1900234214" id="1900234214_1492410199" to="1492410199" /><edge from="1492410199" id="1492410199_1492410189" to="1492410189" /><edge from="1492410189" id="1492410189_1492410192" to="1492410192" /><edge from="1492410192" id="1492410192_1492410146" to="1492410146" /><edge from="1492410146" id="1492410146_1492410212" to="1492410212" /><edge from="1492410212" id="1492410212_1492169325" to="1492169325" /><edge from="1492169325" id="1492169325_1492169330" to="1492169330" /><edge from="1492169330" id="1492169330_2992062893" to="2992062893" /><edge from="2992062893" id="2992062893_1492169253" to="1492169253" /><edge from="1492169253" id="1492169253_1492169261" to="1492169261" /><edge from="1492169261" id="1492169261_1492169336" to="1492169336" /><edge from="1492169336" id="1492169336_1492169348" to="1492169348" /><edge from="1492169348" id="1492169348_1492169335" to="1492169335" /><edge from="1492169335" id="1492169335_1879269418" to="1879269418" /><edge from="1879269418" id="1879269418_1996608006" to="1996608006" /><edge from="1996608006" id="1996608006_257506658" to="257506658" /><edge from="257506658" id="257506658_2185303481" to="2185303481" /><edge from="2185303481" id="2185303481_1881118510" to="1881118510" /><edge from="1881118510" id="1881118510_33238480" to="33238480" /><edge from="33238480" id="33238480_1888086803" to="1888086803" /><edge from="1888086803" id="1888086803_312719435" to="312719435" /><edge from="312719435" id="312719435_312719437" to="312719437" /><edge from="312719437" id="312719437_5427944926" to="5427944926" /><edge from="5427944926" id="5427944926_52600109" to="52600109" /><edge from="52600109" id="52600109_5427967046" to="5427967046" /><edge from="5427967046" id="5427967046_5427967047" to="5427967047" /><edge from="5427967047" id="5427967047_5427967048" to="5427967048" /><edge from="5427967048" id="5427967048_1877472371" to="1877472371" /><edge from="1877472371" id="1877472371_1879206771" to="1879206771" /><edge from="1879206771" id="1879206771_1879206769" to="1879206769" /><edge from="1879206769" id="1879206769_245493801" to="245493801" /><edge from="245493801" id="245493801_245493800" to="245493800" /><edge from="245493800" id="245493800_364329268" to="364329268" /><edge from="364329268" id="364329268_364329206" to="364329206" /><edge from="364329206" id="364329206_1879206776" to="1879206776" /><edge from="1879206776" id="1879206776_955611519" to="955611519" /><edge from="955611519" id="955611519_871096410" to="871096410" /><edge from="871096410" id="871096410_1953967173" to="1953967173" /><edge from="1953967173" id="1953967173_5427930595" to="5427930595" /><edge from="5427930595" id="5427930595_3947038080" to="3947038080" /><edge from="3947038080" id="3947038080_5425783496" to="5425783496" /><edge from="5425783496" id="5425783496_880187088" to="880187088" /><edge from="880187088" id="880187088_778827462" to="778827462" /><edge from="778827462" id="778827462_778826514" to="778826514" /><edge from="778826514" id="778826514_778827730" to="778827730" /><edge from="778827730" id="778827730_778827731" to="778827731" /><edge from="778827731" id="778827731_778827733" to="778827733" /><edge from="778827733" id="778827733_778827735" to="778827735" /><edge from="778827735" id="778827735_778827738" to="778827738" /><edge from="778827738" id="778827738_778828513" to="778828513" /><edge from="778828513" id="778828513_778828640" to="778828640" /><edge from="778828640" id="778828640_778828638" to="778828638" /><edge from="778828638" id="778828638_778828636" to="778828636" /><edge from="778828636" id="778828636_30240836" to="30240836" /><edge from="30240836" id="30240836_1691663877" to="1691663877" /><edge from="1691663877" id="1691663877_30240835" to="30240835" /><edge from="30240835" id="30240835_1691663879" to="1691663879" /><edge from="1691663879" id="1691663879_1691663884" to="1691663884" /><edge from="1691663884" id="1691663884_4326586173" to="4326586173" /><edge from="4326586173" id="4326586173_4326586172" to="4326586172" /><edge from="4326586172" id="4326586172_1691663881" to="1691663881" /><edge from="1691663881" id="1691663881_1691663876" to="1691663876" /><edge from="1691663876" id="1691663876_30240831" to="30240831" /><edge from="30240831" id="30240831_30993509" to="30993509" /><edge from="30993509" id="30993509_777905274" to="777905274" /><edge from="777905274" id="777905274_777905273" to="777905273" /><edge from="777905273" id="777905273_1283628988" to="1283628988" /><edge from="1283628988" id="1283628988_1545387676" to="1545387676" /><edge from="1545387676" id="1545387676_1545387671" to="1545387671" /><edge from="1545387671" id="1545387671_1545387649" to="1545387649" /><edge from="1545387649" id="1545387649_1545387615" to="1545387615" /><edge from="1545387615" id="1545387615_777906400" to="777906400" /><edge from="777906400" id="777906400_35523916" to="35523916" /><edge from="35523916" id="35523916_1545387619" to="1545387619" /><edge from="1545387619" id="1545387619_1492416102" to="1492416102" /><edge from="1492416102" id="1492416102_2412946052" to="2412946052" /><edge from="2412946052" id="2412946052_35523912" to="35523912" /><edge from="35523912" id="35523912_2984287416" to="2984287416" /><edge from="2984287416" id="2984287416_2984287415" to="2984287415" /><edge from="2984287415" id="2984287415_576757230" to="576757230" /><edge from="576757230" id="576757230_2984287414" to="2984287414" /><edge from="2984287414" id="2984287414_2984287413" to="2984287413" /><edge from="2984287413" id="2984287413_576757225" to="576757225" /><edge from="576757225" id="576757225_35523921" to="35523921" /><edge from="35523921" id="35523921_777807061" to="777807061" /><edge from="777807061" id="777807061_475511476" to="475511476" /><edge from="475511476" id="475511476_1686719046" to="1686719046" /><edge from="1686719046" id="1686719046_35523904" to="35523904" /><edge from="35523904" id="35523904_1686719017" to="1686719017" /><edge from="1686719017" id="1686719017_1686719014" to="1686719014" /><edge from="1686719014" id="1686719014_475511480" to="475511480" /><edge from="475511480" id="475511480_1686718998" to="1686718998" /><edge from="1686718998" id="1686718998_1686718988" to="1686718988" /><edge from="1686718988" id="1686718988_35365996" to="35365996" /><edge from="35365996" id="35365996_1686718973" to="1686718973" /><edge from="1686718973" id="1686718973_475511486" to="475511486" /><edge from="475511486" id="475511486_1686718981" to="1686718981" /><edge from="1686718981" id="1686718981_279224060" to="279224060" /><edge from="279224060" id="279224060_1686718993" to="1686718993" /><edge from="1686718993" id="1686718993_475511485" to="475511485" /><edge from="475511485" id="475511485_1686719009" to="1686719009" /><edge from="1686719009" id="1686719009_282825760" to="282825760" /><edge from="282825760" id="282825760_282825759" to="282825759" /><edge from="282825759" id="282825759_282825763" to="282825763" /><edge from="282825763" id="282825763_282825846" to="282825846" /><edge from="282825846" id="282825846_282825845" to="282825845" /><edge from="282825845" id="282825845_282825802" to="282825802" /><edge from="282825802" id="282825802_387153066" to="387153066" /><edge from="387153066" id="387153066_387153065" to="387153065" /><edge from="387153065" id="387153065_35285670" to="35285670" /><edge from="35285670" id="35285670_282825822" to="282825822" /><edg