<nodes><node id="767582212" x="144.9714275" y="-37.8075344" /><node id="227770375" x="144.9847551" y="-37.8007723" /><node id="1463656456" x="144.9994699" y="-37.8168054" /><node id="3929825291" x="144.9852742" y="-37.793756" /><node id="309977100" x="145.0547873" y="-37.8037646" /><node id="4000710669" x="145.038027" y="-37.807692" /><node id="1336844304" x="144.986959" y="-37.8015052" /><node id="280920081" x="144.935774" y="-37.790239" /><node id="4283908116" x="144.9767682" y="-37.8081037" /><node id="4283908117" x="144.9768225" y="-37.8081096" /><node id="571835737" x="144.8773463" y="-37.8169398" /><node id="4283908124" x="144.9785084" y="-37.8084589" /><node id="571835738" x="144.8774174" y="-37.8171496" /><node id="4283908126" x="144.9785017" y="-37.808494" /><node id="571835739" x="144.8774898" y="-37.8173805" /><node id="2239389739" x="144.9998555" y="-37.8149298" /><node id="210772014" x="145.0289511" y="-37.8065141" /><node id="250011701" x="144.8942152" y="-37.8216128" /><node id="304701495" x="145.0327138" y="-37.8070778" /><node id="29827130" x="144.9884732" y="-37.794098" /><node id="304701503" x="145.031765" y="-37.8069681" /><node id="3067843936" x="145.0031671" y="-37.8008447" /><node id="2245992514" x="145.0667642" y="-37.8110723" /><node id="4283908163" x="145.0006641" y="-37.8105551" /><node id="4283908164" x="145.0006459" y="-37.8105845" /><node id="850722885" x="145.0379324" y="-37.8076811" /><node id="227770439" x="144.986982" y="-37.8013589" /><node id="3162726472" x="144.9315067" y="-37.7914162" /><node id="3162726474" x="144.9314508" y="-37.7913508" /><node id="2383211191" x="144.9638587" y="-37.8095052" /><node id="3162726476" x="144.9316154" y="-37.7913908" /><node id="3162726478" x="144.9315934" y="-37.7914084" /><node id="3162726480" x="144.9316284" y="-37.7913683" /><node id="3162726481" x="144.9314565" y="-37.7913751" /><node id="4283908179" x="145.0086784" y="-37.8113336" /><node id="4283908181" x="145.0097679" y="-37.8114192" /><node id="1982447702" x="145.0058951" y="-37.8160323" /><node id="4283908183" x="145.0097593" y="-37.8114484" /><node id="4288151641" x="145.0424699" y="-37.8082052" /><node id="4283908186" x="144.97475" y="-37.8117726" /><node id="4283908187" x="145.014663" y="-37.8120407" /><node id="1982447708" x="145.0058906" y="-37.8159983" /><node id="1492131934" x="144.9449865" y="-37.8120624" /><node id="1492131937" x="144.9469261" y="-37.8112471" /><node id="1982447714" x="145.0058769" y="-37.815982" /><node id="1492131942" x="144.9451795" y="-37.8119943" /><node id="2245992551" x="145.0618463" y="-37.8104834" /><node id="1492131944" x="144.9451037" y="-37.8120717" /><node id="1492131945" x="144.945218" y="-37.8119009" /><node id="1492131946" x="144.9450421" y="-37.8120659" /><node id="128893036" x="145.0065284" y="-37.8014629" /><node id="1492131951" x="144.9451785" y="-37.812087" /><node id="176693360" x="144.9614497" y="-37.8103372" /><node id="309977202" x="145.053019" y="-37.805534" /><node id="1492131957" x="144.9451925" y="-37.8119475" /><node id="202522745" x="144.918175" y="-37.7996019" /><node id="2245992570" x="145.0641187" y="-37.8107555" /><node id="1492131965" x="144.945175" y="-37.8120293" /><node id="2190483583" x="144.961445" y="-37.8103271" /><node id="1492131968" x="144.9471231" y="-37.8111783" /><node id="2190483587" x="144.9613957" y="-37.8102201" /><node id="176693380" x="144.9624361" y="-37.8106851" /><node id="2190483591" x="144.9621679" y="-37.8122458" /><node id="2190483594" x="144.9623095" y="-37.8122047" /><node id="2190483597" x="144.9618758" y="-37.8112627" /><node id="227770511" x="144.9869375" y="-37.8016271" /><node id="176693402" x="144.9621293" y="-37.8111891" /><node id="311902363" x="145.0571107" y="-37.8040933" /><node id="55861404" x="144.9829932" y="-37.8063565" /><node id="3306881184" x="144.9558159" y="-37.8118399" /><node id="122732708" x="144.9042063" y="-37.8050731" /><node id="2123710633" x="145.0547653" y="-37.8038246" /><node id="224750279" x="144.9810214" y="-37.8038875" /><node id="2123710638" x="145.054783" y="-37.8037962" /><node id="309977265" x="145.0518855" y="-37.8054051" /><node id="244244659" x="144.968653" y="-37.8079171" /><node id="2123710644" x="145.0547161" y="-37.8038552" /><node id="176693430" x="144.9636534" y="-37.8107471" /><node id="5033687753" x="144.8993695" y="-37.816484" /><node id="313254077" x="145.0692452" y="-37.8078167" /><node id="313254089" x="145.0700302" y="-37.8042422" /><node id="540557516" x="145.0189731" y="-37.8039909" /><node id="540557517" x="145.0187022" y="-37.8038235" /><node id="313248461" x="145.0626992" y="-37.8070399" /><node id="320086226" x="144.878043" y="-37.8122031" /><node id="304718042" x="145.044866" y="-37.8156477" /><node id="313254107" x="145.0711596" y="-37.8043727" /><node id="313254109" x="145.0704159" y="-37.8079647" /><node id="306905310" x="144.938994" y="-37.810713" /><node id="268533989" x="144.9751816" y="-37.8118185" /><node id="268533990" x="144.97473" y="-37.8117705" /><node id="268533991" x="144.9753622" y="-37.8118383" /><node id="4787388648" x="144.9044387" y="-37.804559" /><node id="4787388649" x="144.9045057" y="-37.8044195" /><node id="268533994" x="144.9780313" y="-37.8110812" /><node id="313139437" x="145.0619917" y="-37.8069505" /><node id="313254135" x="145.0723068" y="-37.8044996" /><node id="320086268" x="144.879743" y="-37.8102951" /><node id="320086269" x="144.8805425" y="-37.8103969" /><node id="320086270" x="144.8814094" y="-37.8104841" /><node id="320086271" x="144.8822262" y="-37.810588" /><node id="320086272" x="144.8830236" y="-37.8106859" /><node id="320086273" x="144.8838715" y="-37.8107958" /><node id="373653770" x="144.9158538" y="-37.8077456" /><node id="827113739" x="145.002678" y="-37.8008005" /><node id="3394781452" x="144.9428588" y="-37.8053949" /><node id="4717969677" x="144.9002959" y="-37.8118549" /><node id="4790886670" x="144.9000942" y="-37.8107163" /><node id="416817424" x="144.9784778" y="-37.8094731" /><node id="416817425" x="144.9791791" y="-37.8098651" /><node id="416817426" x="144.9788899" y="-37.8095185" /><node id="416817427" x="144.9789187" y="-37.8093471" /><node id="416817428" x="144.979254" y="-37.8093825" /><node id="3830161454" x="144.9960208" y="-37.8053404" /><node id="250011929" x="144.8943797" y="-37.8216313" /><node id="92242202" x="144.9310789" y="-37.7912765" /><node id="541122845" x="145.0098722" y="-37.8029019" /><node id="774546107" x="144.9560692" y="-37.8059066" /><node id="2612216102" x="144.8604529" y="-37.81021" /><node id="2612216103" x="144.8599359" y="-37.8130278" /><node id="2612216104" x="144.8601459" y="-37.813492" /><node id="2612216105" x="144.8627368" y="-37.8127679" /><node id="2612216106" x="144.8640014" y="-37.8124325" /><node id="2612216107" x="144.8656263" y="-37.811994" /><node id="2612216108" x="144.8674583" y="-37.811479" /><node id="2612216109" x="144.8675799" y="-37.8114934" /><node id="2612216110" x="144.8657932" y="-37.8120379" /><node id="2612216111" x="144.8653077" y="-37.81208" /><node id="3221168432" x="144.8833891" y="-37.8022785" /><node id="321118513" x="144.890653" y="-37.8133218" /><node id="321118514" x="144.8912744" y="-37.8133981" /><node id="541122878" x="145.0149943" y="-37.8051732" /><node id="541122879" x="145.0150051" y="-37.8051002" /><node id="541122881" x="145.0133855" y="-37.8043808" /><node id="541122882" x="145.0113857" y="-37.8035325" /><node id="541122883" x="145.011299" y="-37.8034403" /><node id="541122884" x="145.0110624" y="-37.8033633" /><node id="541122885" x="145.0108978" y="-37.8033292" /><node id="67617094" x="144.9201474" y="-37.7984668" /><node id="356474935" x="144.9920191" y="-37.7997424" /><node id="541122905" x="145.0094654" y="-37.8027452" /><node id="313254237" x="145.0722559" y="-37.8044959" /><node id="313254240" x="145.0726395" y="-37.8082298" /><node id="224763532" x="144.9945944" y="-37.8099266" /><node id="26034531" x="144.9593848" y="-37.8119849" /><node id="311902564" x="145.0544711" y="-37.804816" /><node id="313254247" x="145.0734074" y="-37.8046216" /><node id="313254248" x="145.0732978" y="-37.8046082" /><node id="309969259" x="145.0333314" y="-37.8071492" /><node id="3775019752" x="144.9835946" y="-37.8078975" /><node id="304701810" x="145.0354272" y="-37.8073915" /><node id="309969280" x="145.0335515" y="-37.8057905" /><node id="462864770" x="145.0617324" y="-37.8070208" /><node id="321119638" x="144.8879858" y="-37.8100056" /><node id="3071689094" x="145.0351842" y="-37.8086512" /><node id="30220683" x="144.9882133" y="-37.7940717" /><node id="92258704" x="144.9322936" y="-37.7899423" /><node id="92258706" x="144.9323125" y="-37.7898643" /><node id="506143125" x="144.923643" y="-37.7954868" /><node id="506143127" x="144.9230646" y="-37.7948687" /><node id="30220696" x="144.985115" y="-37.7940773" /><node id="304701851" x="145.0363777" y="-37.809801" /><node id="304701852" x="145.0368076" y="-37.8075511" /><node id="3215106462" x="144.950248" y="-37.8104633" /><node id="321118623" x="144.8898862" y="-37.8097601" /><node id="3176128932" x="144.9083329" y="-37.8064987" /><node id="3176128935" x="144.9084002" y="-37.8063096" /><node id="709706157" x="144.9363255" y="-37.8100244" /><node id="709706159" x="144.9363886" y="-37.8100419" /><node id="4288151624" x="145.0353216" y="-37.807939" /><node id="3215106482" x="144.9499068" y="-37.8089549" /><node id="709706163" x="144.9366347" y="-37.8101193" /><node id="3215106484" x="144.9506601" y="-37.8085732" /><node id="92242361" x="144.9306254" y="-37.7912222" /><node id="4169720251" x="145.0312496" y="-37.8066203" /><node id="4283908170" x="145.0047234" y="-37.8109494" /><node id="3215106497" x="144.9524056" y="-37.8077142" /><node id="4169720259" x="145.0304745" y="-37.8069193" /><node id="309969348" x="145.0341482" y="-37.8072436" /><node id="161467080" x="144.9583791" y="-37.8133427" /><node id="3543024078" x="144.9561923" y="-37.8117306" /><node id="1928298965" x="145.0742633" y="-37.8066668" /><node id="4655129046" x="144.9487494" y="-37.809416" /><node id="4655129047" x="144.9485268" y="-37.8091669" /><node id="4169720285" x="145.0313776" y="-37.8065559" /><node id="321118687" x="144.8910108" y="-37.8113663" /><node id="4169720288" x="145.0306213" y="-37.80688" /><node id="321118689" x="144.8911765" y="-37.8102612" /><node id="321118690" x="144.8912599" y="-37.8099333" /><node id="26034662" x="144.9666843" y="-37.8098683" /><node id="26034663" x="144.9691215" y="-37.8091642" /><node id="3480502762" x="144.9041304" y="-37.8052583" /><node id="26034668" x="144.9720689" y="-37.8093347" /><node id="26034669" x="144.9671114" y="-37.8108078" /><node id="26034670" x="144.9695403" y="-37.8100861" /><node id="3933095115" x="144.96866" y="-37.8072325" /><node id="21643772" x="145.0381593" y="-37.8077073" /><node id="2481930759" x="145.009281" y="-37.8141184" /><node id="2236727821" x="144.9938236" y="-37.8098294" /><node id="1982447705" x="145.0058964" y="-37.8160172" /><node id="5290706351" x="144.9767231" y="-37.8084066" /><node id="129557020" x="144.9399538" y="-37.8113246" /><node id="129557021" x="144.9410449" y="-37.8119008" /><node id="129557023" x="144.9421982" y="-37.8125604" /><node id="21643809" x="145.0617198" y="-37.8049948" /><node id="4061053475" x="144.9953046" y="-37.8100036" /><node id="233555377" x="144.9815607" y="-37.80771" /><node id="4061053484" x="144.9958751" y="-37.8100628" /><node id="313139758" x="145.072345" y="-37.8081966" /><node id="21643829" x="145.0289569" y="-37.8061341" /><node id="1458422326" x="145.0088873" y="-37.8163257" /><node id="4793613067" x="144.9347842" y="-37.8077798" /><node id="583189061" x="144.9057953" y="-37.805821" /><node id="338505825" x="144.9866809" y="-37.7939055" /><node id="313139789" x="145.0710986" y="-37.8080469" /><node id="67625554" x="144.9233869" y="-37.7946771" /><node id="295874660" x="144.9091491" y="-37.8067516" /><node id="3146808079" x="144.9880858" y="-37.8120434" /><node id="1533600348" x="145.0207992" y="-37.8104166" /><node id="313139805" x="145.0698174" y="-37.8078916" /><node id="5290706363" x="144.9766673" y="-37.8083709" /><node id="313139816" x="145.0685612" y="-37.8077301" /><node id="5290706364" x="144.9766257" y="-37.8082574" /><node id="571835650" x="144.8763539" y="-37.8154142" /><node id="313139819" x="145.0678804" y="-37.8112223" /><node id="373645935" x="144.9289451" y="-37.8088511" /><node id="4428399220" x="144.8795558" y="-37.8199646" /><node id="30948116" x="145.0073618" y="-37.811221" /><node id="313139836" x="145.0667211" y="-37.8075081" /><node id="598491773" x="145.040315" y="-37.8160965" /><node id="598491774" x="145.040366" y="-37.8160817" /><node id="245537567" x="144.9658398" y="-37.8104593" /><node id="598491783" x="145.0391161" y="-37.816853" /><node id="313441047" x="145.0743254" y="-37.8065568" /><node id="313139853" x="145.0663628" y="-37.8093922" /><node id="1533600403" x="145.0166337" y="-37.8137956" /><node id="711369366" x="144.9591066" y="-37.8063468" /><node id="373645976" x="144.9291692" y="-37.8088654" /><node id="313139865" x="145.0656323" y="-37.809378" /><node id="313139868" x="145.0682075" y="-37.8095528" /><node id="1533600415" x="145.0184048" y="-37.8149373" /><node id="1928315552" x="145.0714894" y="-37.8080701" /><node id="1492131952" x="144.946345" y="-37.8114419" /><node id="1928315555" x="145.0715632" y="-37.8080411" /><node id="2185303494" x="144.9550359" y="-37.8103422" /><node id="1928315558" x="145.0715324" y="-37.8080425" /><node id="583185977" x="144.8960849" y="-37.8205372" /><node id="769188524" x="144.9741583" y="-37.8011606" /><node id="583189165" x="144.9046921" y="-37.8069231" /><node id="769188527" x="144.9733089" y="-37.8011073" /><node id="583189170" x="144.9055173" y="-37.8059975" /><node id="1928315573" x="145.0715068" y="-37.8080526" /><node id="583189176" x="144.9056778" y="-37.8059451" /><node id="3933086393" x="144.9626971" y="-37.8065605" /><node id="370750746" x="144.9886721" y="-37.8120936" /><node id="1928315579" x="145.0716181" y="-37.8080716" /><node id="301548220" x="144.9852247" y="-37.8065557" /><node id="1928315581" x="145.0716271" y="-37.8081084" /><node id="301548222" x="144.9860054" y="-37.8071034" /><node id="301548223" x="144.9843136" y="-37.8065163" /><node id="1928315586" x="145.0714809" y="-37.808091" /><node id="313139907" x="145.0661593" y="-37.8094416" /><node id="571835653" x="144.8759462" y="-37.8151239" /><node id="1928315589" x="145.0716037" y="-37.8080577" /><node id="313139910" x="145.0667611" y="-37.8110883" /><node id="1426680609" x="145.0204772" y="-37.8114711" /><node id="1928315592" x="145.0716264" y="-37.8080889" /><node id="313139919" x="145.0611785" y="-37.8078117" /><node id="767730386" x="144.9460642" y="-37.8056896" /><node id="3146808099" x="144.9822571" y="-37.8101959" /><node id="2190483577" x="144.961734" y="-37.8113038" /><node id="564470489" x="144.9756068" y="-37.7964025" /><node id="2190483578" x="144.9599543" y="-37.8070898" /><node id="33366754" x="144.9360412" y="-37.8099179" /><node id="4746494692" x="144.8975858" y="-37.8141488" /><node id="828433125" x="144.9994224" y="-37.8078919" /><node id="313139943" x="145.0653006" y="-37.8082966" /><node id="313139944" x="145.0654568" y="-37.8080066" /><node id="313139945" x="145.0659159" y="-37.8076329" /><node id="313139946" x="145.0659671" y="-37.8074228" /><node id="373646060" x="144.9316054" y="-37.8090742" /><node id="313139953" x="145.0641156" y="-37.8107715" /><node id="30221043" x="145.0097636" y="-37.8114336" /><node id="723976949" x="145.0088923" y="-37.8113217" /><node id="4746494710" x="144.8973291" y="-37.8145092" /><node id="30221048" x="145.0159673" y="-37.8122155" /><node id="30221049" x="145.0368347" y="-37.8146892" /><node id="202522752" x="144.9194515" y="-37.7988644" /><node id="4029432579" x="144.9524981" y="-37.793984" /><node id="616528343" x="144.886542" y="-37.8127775" /><node id="3462475906" x="144.9833648" y="-37.8103152" /><node id="122727214" x="144.8997794" y="-37.8145281" /><node id="583181080" x="144.9231681" y="-37.7967624" /><node id="4283908889" x="144.9744946" y="-37.8121266" /><node id="313139995" x="145.0644077" y="-37.8092296" /><node id="4283908892" x="145.0160766" y="-37.812244" /><node id="4283908893" x="144.9742733" y="-37.8124992" /><node id="571835656" x="144.8750195" y="-37.8148071" /><node id="4283908898" x="144.9739665" y="-37.8130163" /><node id="313140003" x="145.0648414" y="-37.8031472" /><node id="313140004" x="145.0690637" y="-37.8036732" /><node id="497402662" x="145.0101502" y="-37.7934727" /><node id="320490290" x="144.867831" y="-37.8147675" /><node id="153690926" x="145.0093838" y="-37.7997523" /><node id="153690930" x="145.0099288" y="-37.8002925" /><node id="224750388" x="144.980231" y="-37.8084683" /><node id="5063584565" x="144.9514941" y="-37.8130834" /><node id="777799136" x="144.9550625" y="-37.8059084" /><node id="320491659" x="144.8792023" y="-37.8123333" /><node id="320491661" x="144.8776237" y="-37.8155501" /><node id="332544824" x="144.943106" y="-37.805421" /><node id="3071689559" x="145.0351093" y="-37.8090396" /><node id="3158860634" x="144.9551879" y="-37.8142605" /><node id="1354965851" x="144.9197252" y="-37.7987069" /><node id="214098780" x="145.0222188" y="-37.8171463" /><node id="4696480570" x="144.9944009" y="-37.7999791" /><node id="4544002875" x="144.9659374" y="-37.8111493" /><node id="767664999" x="144.9733588" y="-37.8080452" /><node id="250004328" x="144.8975985" y="-37.8117598" /><node id="767665001" x="144.9733709" y="-37.8079659" /><node id="767665014" x="144.9733977" y="-37.8078015" /><node id="767665017" x="144.9734019" y="-37.8077306" /><node id="250291067" x="144.8895409" y="-37.8210879" /><node id="4309902215" x="144.9800876" y="-37.8024368" /><node id="313140108" x="145.0661994" y="-37.8033223" /><node id="250291087" x="144.8914057" y="-37.8212973" /><node id="4551628270" x="144.9478827" y="-37.8076649" /><node id="3933095112" x="144.9703096" y="-37.8074104" /><node id="2291073956" x="144.9686766" y="-37.8080872" /><node id="663471013" x="144.9481401" y="-37.8115451" /><node id="30220444" x="144.968907" y="-37.8072639" /><node id="313140141" x="145.0654162" y="-37.8073602" /><node id="214098865" x="145.0207945" y="-37.8158421" /><node id="2291073976" x="144.961391" y="-37.8102099" /><node id="2291073977" x="144.9612489" y="-37.8102507" /><node id="2291073980" x="144.9607978" y="-37.81038" /><node id="304712522" x="145.0276181" y="-37.8149184" /><node id="2291073983" x="144.959837" y="-37.8106585" /><node id="2291073984" x="144.9589795" y="-37.8109096" /><node id="571835329" x="144.8725314" y="-37.813763" /><node id="2291073986" x="144.958809" y="-37.810957" /><node id="2291073987" x="144.9590364" y="-37.8110331" /><node id="400753604" x="144.9369713" y="-37.8094146" /><node id="560997317" x="144.9359473" y="-37.8099116" /><node id="2291073990" x="144.9569647" y="-37.8114948" /><node id="2291073991" x="144.9564689" y="-37.8116451" /><node id="2291073992" x="144.9563065" y="-37.8116918" /><node id="400753610" x="144.9369169" y="-37.8095207" /><node id="2291073998" x="144.9539886" y="-37.8123602" /><node id="2291073999" x="144.9539446" y="-37.812372" /><node id="2291074001" x="144.9538164" y="-37.8124096" /><node id="2291074002" x="144.9540156" y="-37.8124949" /><node id="571835347" x="144.8770032" y="-37.816207" /><node id="2291074005" x="144.9515622" y="-37.8130635" /><node id="2291074006" x="144.9514986" y="-37.813093" /><node id="4169720791" x="145.0255146" y="-37.8109881" /><node id="214131680" x="145.0208835" y="-37.8104264" /><node id="320488417" x="144.8688114" y="-37.8149417" /><node id="320488418" x="144.8688002" y="-37.8148763" /><node id="320488419" x="144.868848" y="-37.8148261" /><node id="320488420" x="144.8689219" y="-37.8148149" /><node id="30385490" x="144.9983034" y="-37.8157135" /><node id="571835367" x="144.8773315" y="-37.815838" /><node id="1522566120" x="145.029503" y="-37.8065724" /><node id="1522566124" x="145.0283619" y="-37.80538" /><node id="462849005" x="145.0625587" y="-37.8095822" /><node id="462849009" x="145.0620276" y="-37.8095172" /><node id="214131699" x="145.0225951" y="-37.8106308" /><node id="4765991926" x="144.8936719" y="-37.8199841" /><node id="4765991927" x="144.8936595" y="-37.819972" /><node id="4765991928" x="144.8936525" y="-37.8199575" /><node id="1404216313" x="144.9900561" y="-37.8012467" /><node id="4765991930" x="144.8936672" y="-37.819914" /><node id="4765991931" x="144.8936825" y="-37.8199043" /><node id="1404216317" x="144.9887562" y="-37.8011507" /><node id="571835393" x="144.8771297" y="-37.8161363" /><node id="1404216323" x="144.9892818" y="-37.8011886" /><node id="245537622" x="144.96556" y="-37.8108376" /><node id="3285623814" x="144.9317326" y="-37.8090858" /><node id="1522566154" x="145.0295471" y="-37.8065726" /><node id="214131724" x="145.0255356" y="-37.8109907" /><node id="571835664" x="144.8733337" y="-37.8142488" /><node id="1522566159" x="145.025819" y="-37.8050905" /><node id="1982350358" x="144.9814471" y="-37.7943237" /><node id="547587095" x="144.9902428" y="-37.8135038" /><node id="313140253" x="145.068976" y="-37.8041119" /><node id="583189536" x="144.9067052" y="-37.8062214" /><node id="2209383458" x="144.9580028" y="-37.7955772" /><node id="2967053348" x="144.9972679" y="-37.8072916" /><node id="2967053349" x="144.9988107" y="-37.807309" /><node id="2967053354" x="144.9980726" y="-37.80737" /><node id="2967053356" x="144.9989152" y="-37.807418" /><node id="1522566189" x="145.030128" y="-37.8064868" /><node id="332544861" x="144.9509981" y="-37.8120549" /><node id="137126960" x="144.9475706" y="-37.7935099" /><node id="572826675" x="144.9877362" y="-37.794011" /><node id="30942262" x="144.9492653" y="-37.8092649" /><node id="30942264" x="144.9503021" y="-37.8105739" /><node id="30942265" x="144.9503794" y="-37.8110569" /><node id="35726399" x="144.9123512" y="-37.807465" /><node id="35726400" x="144.91036" y="-37.8071328" /><node id="4297530208" x="144.9772251" y="-37.8056962" /><node id="5556315206" x="144.9351774" y="-37.8076611" /><node id="5556315207" x="144.9357896" y="-37.807394" /><node id="2102862920" x="144.8695636" y="-37.8121616" /><node id="2102862921" x="144.869145" y="-37.8122778" /><node id="313140298" x="145.0670976" y="-37.8075525" /><node id="2102862923" x="144.8694093" y="-37.8122572" /><node id="2102862924" x="144.8693512" y="-37.8121778" /><node id="332544866" x="144.949889" y="-37.8101114" /><node id="2102862927" x="144.8693682" y="-37.812154" /><node id="2102862928" x="144.8687983" y="-37.8149141" /><node id="1522566225" x="145.0301583" y="-37.8063455" /><node id="5556315220" x="144.9391348" y="-37.8059806" /><node id="313140309" x="145.0681059" y="-37.8035582" /><node id="4061250646" x="144.9700611" y="-37.8009521" /><node id="2102862936" x="144.8693542" y="-37.8122207" /><node id="2435998810" x="144.8996602" y="-37.8116663" /><node id="2102862940" x="144.8694632" y="-37.812252" /><node id="2435998814" x="144.9006893" y="-37.809398" /><node id="214099039" x="145.0202597" y="-37.8127368" /><node id="4061250656" x="144.969772" y="-37.8009308" /><node id="2102862945" x="144.8693693" y="-37.812239" /><node id="2102862947" x="144.8693479" y="-37.8121995" /><node id="1409483878" x="144.8764456" y="-37.8164263" /><node id="1522566247" x="145.0296452" y="-37.8065729" /><node id="2102862955" x="144.8694368" y="-37.8122583" /><node id="2102862958" x="144.8695053" y="-37.8121847" /><node id="2102862960" x="144.8694963" y="-37.812227" /><node id="4297530216" x="144.9774935" y="-37.8057387" /><node id="477078642" x="144.9747377" y="-37.8063865" /><node id="2102862964" x="144.8688827" y="-37.8148154" /><node id="3973071989" x="144.8837842" y="-37.8107846" /><node id="2102862966" x="144.8695056" y="-37.8122065" /><node id="3973071991" x="144.8839303" y="-37.8110374" /><node id="2102862968" x="144.8716737" y="-37.8161182" /><node id="289602599" x="144.9518797" y="-37.80942" /><node id="1522566268" x="145.0293823" y="-37.8072739" /><node id="2102862974" x="144.86929" y="-37.812223" /><node id="2102862976" x="144.8696425" y="-37.8121811" /><node id="2102862979" x="144.8693913" y="-37.812252" /><node id="2102862980" x="144.8694957" y="-37.8121642" /><node id="2102862982" x="144.86939" y="-37.8121406" /><node id="122725511" x="144.8995547" y="-37.8154413" /><node id="1492149384" x="144.9514657" y="-37.8130236" /><node id="1522566282" x="145.0290926" y="-37.8065279" /><node id="3367904396" x="144.9696825" y="-37.8099618" /><node id="35726477" x="144.9095631" y="-37.8069541" /><node id="35726478" x="144.9095586" y="-37.8068509" /><node id="3367904401" x="144.9705832" y="-37.8119086" /><node id="1492149394" x="144.9515679" y="-37.8130729" /><node id="723797140" x="145.0030744" y="-37.7934214" /><node id="3367904413" x="144.9693989" y="-37.8101281" /><node id="3367904416" x="144.9685643" y="-37.8081396" /><node id="3367904418" x="144.9669929" y="-37.8108423" /><node id="571770021" x="145.0024937" y="-37.7933886" /><node id="571770022" x="145.0026224" y="-37.7933674" /><node id="376145063" x="144.976665" y="-37.8090663" /><node id="1522566317" x="145.0290832" y="-37.8073809" /><node id="2209383602" x="144.9581211" y="-37.795592" /><node id="250291379" x="144.8933466" y="-37.8137525" /><node id="168384030" x="144.9597365" y="-37.8113803" /><node id="249996470" x="144.9058304" y="-37.8015146" /><node id="1522566327" x="145.0272213" y="-37.8052454" /><node id="250291386" x="144.887981" y="-37.8133263" /><node id="250291395" x="144.8834758" y="-37.81282" /><node id="250291397" x="144.8749443" y="-37.8118517" /><node id="363373768" x="144.9603651" y="-37.7973983" /><node id="3933095113" x="144.9687211" y="-37.8074123" /><node id="3933095114" x="144.9713252" y="-37.8075237" /><node id="250291403" x="144.8708708" y="-37.8113845" /><node id="250291406" x="144.8700008" y="-37.811118" /><node id="462865616" x="145.0619357" y="-37.8070591" /><node id="1132070484" x="144.9394191" y="-37.8105225" /><node id="304710870" x="144.9347841" y="-37.8094097" /><node id="304710871" x="144.9355051" y="-37.8095046" /><node id="250291418" x="144.8677413" y="-37.8110214" /><node id="560997595" x="144.9384715" y="-37.8102567" /><node id="250479836" x="145.0064662" y="-37.8111341" /><node id="560997597" x="144.9359663" y="-37.8097993" /><node id="224750459" x="144.9818136" y="-37.8062334" /><node id="1522566380" x="145.0300965" y="-37.8066332" /><node id="280920274" x="144.9360449" y="-37.7888296" /><node id="560997614" x="144.9360754" y="-37.8100144" /><node id="560997615" x="144.9370154" y="-37.8102036" /><node id="702363888" x="144.9414856" y="-37.8054411" /><node id="2245788915" x="145.0469016" y="-37.8087332" /><node id="250479861" x="145.005857" y="-37.8159705" /><node id="321119478" x="144.8868293" y="-37.8111908" /><node id="477078776" x="144.9742983" y="-37.8068638" /><node id="2245788925" x="145.0560272" y="-37.8098308" /><node id="571835647" x="144.877003" y="-37.8159259" /><node id="571835648" x="144.876897" y="-37.8157966" /><node id="571835649" x="144.8766275" y="-37.8155508" /><node id="2245788930" x="145.057388" y="-37.8099602" /><node id="571835651" x="144.8761299" y="-37.8153135" /><node id="560997636" x="144.9375626" y="-37.8103392" /><node id="4110787845" x="144.9960381" y="-37.8100798" /><node id="30385414" x="145.0226304" y="-37.8171897" /><node id="30385415" x="145.0207396" y="-37.8169764" /><node id="30385416" x="145.021693" y="-37.8159894" /><node id="571835657" x="144.8745783" y="-37.8146651" /><node id="571835658" x="144.8743369" y="-37.8145497" /><node id="709707019" x="144.9424611" y="-37.8127076" /><node id="571835660" x="144.8739922" y="-37.8143303" /><node id="2245788941" x="145.0388028" y="-37.8077627" /><node id="571835662" x="144.8738769" y="-37.8143166" /><node id="571835663" x="144.8735899" y="-37.8143378" /><node id="709707024" x="144.9425214" y="-37.8127283" /><node id="571835665" x="144.8730749" y="-37.8141576" /><node id="571835666" x="144.872977" y="-37.8140591" /><node id="571835667" x="144.8729515" y="-37.8138684" /><node id="571835674" x="144.874297" y="-37.8145198" /><node id="4072555805" x="145.0073992" y="-37.8161984" /><node id="320086235" x="144.8764376" y="-37.8120209" /><node id="2841675044" x="144.9681941" y="-37.8082466" /><node id="320488742" x="144.8723406" y="-37.8136703" /><node id="1132070449" x="144.9391696" y="-37.8103858" /><node id="245507368" x="144.9615299" y="-37.7984438" /><node id="320488745" x="144.869063" y="-37.814107" /><node id="250291504" x="144.8689082" y="-37.8111131" /><node id="2841675061" x="144.9632948" y="-37.8096688" /><node id="30944137" x="144.9782577" y="-37.8097648" /><node id="777753012" x="144.9560517" y="-37.8060123" /><node id="250479864" x="145.0074542" y="-37.8161788" /><node id="571835711" x="144.8756125" y="-37.8149298" /><node id="4794459456" x="144.9376009" y="-37.8065934" /><node id="4794459457" x="144.9381114" y="-37.8063763" /><node id="2181268810" x="144.9590339" y="-37.8110279" /><node id="571835726" x="144.877282" y="-37.8157122" /><node id="30385487" x="144.9964523" y="-37.81549" /><node id="244548946" x="144.9776693" y="-37.7966214" /><node id="571835731" x="144.8770452" y="-37.8161857" /><node id="277366101" x="145.0216609" y="-37.8031816" /><node id="277366102" x="145.0212225" y="-37.8034424" /><node id="277366103" x="145.020766" y="-37.8037172" /><node id="277366104" x="145.0203985" y="-37.8038865" /><node id="277366105" x="145.0201161" y="-37.8039849" /><node id="277366106" x="145.0195922" y="-37.8040967" /><node id="277366107" x="145.0192422" y="-37.8041452" /><node id="571835740" x="144.8775569" y="-37.8176093" /><node id="571835741" x="144.8776199" y="-37.8177608" /><node id="2181268832" x="144.9638876" y="-37.8096177" /><node id="2181268836" x="144.9662571" y="-37.8089285" /><node id="5831