<edges><edge from="1928298965" id="1928298965_313441047" to="313441047" /><edge from="313441047" id="313441047_313440696" to="313440696" /><edge from="313440696" id="313440696_313254247" to="313254247" /><edge from="313254247" id="313254247_313254248" to="313254248" /><edge from="313254248" id="313254248_313254135" to="313254135" /><edge from="313254135" id="313254135_313254237" to="313254237" /><edge from="313254237" id="313254237_313254107" to="313254107" /><edge from="313254107" id="313254107_313254089" to="313254089" /><edge from="313254089" id="313254089_313140253" to="313140253" /><edge from="313140253" id="313140253_313140004" to="313140004" /><edge from="313140004" id="313140004_313140309" to="313140309" /><edge from="313140309" id="313140309_313140381" to="313140381" /><edge from="313140381" id="313140381_313140108" to="313140108" /><edge from="313140108" id="313140108_670001388" to="670001388" /><edge from="670001388" id="670001388_313140003" to="313140003" /><edge from="313140003" id="313140003_4889662608" to="4889662608" /><edge from="4889662608" id="4889662608_313140000" to="313140000" /><edge from="313140000" id="313140000_310001316" to="310001316" /><edge from="310001316" id="310001316_5315879306" to="5315879306" /><edge from="5315879306" id="5315879306_310001318" to="310001318" /><edge from="310001318" id="310001318_530329329" to="530329329" /><edge from="530329329" id="530329329_530329237" to="530329237" /><edge from="530329237" id="530329237_604125669" to="604125669" /><edge from="604125669" id="604125669_310001315" to="310001315" /><edge from="310001315" id="310001315_4695022400" to="4695022400" /><edge from="4695022400" id="4695022400_4695022177" to="4695022177" /><edge from="4695022177" id="4695022177_4695022397" to="4695022397" /><edge from="4695022397" id="4695022397_310001311" to="310001311" /><edge from="310001311" id="310001311_3496672103" to="3496672103" /><edge from="3496672103" id="3496672103_311902363" to="311902363" /><edge from="311902363" id="311902363_310001304" to="310001304" /><edge from="310001304" id="310001304_309977100" to="309977100" /><edge from="309977100" id="309977100_2123710642" to="2123710642" /><edge from="2123710642" id="2123710642_370482122" to="370482122" /><edge from="370482122" id="370482122_2123710629" to="2123710629" /><edge from="2123710629" id="2123710629_370482116" to="370482116" /><edge from="370482116" id="370482116_2123710640" to="2123710640" /><edge from="2123710640" id="2123710640_370482121" to="370482121" /><edge from="370482121" id="370482121_2123710630" to="2123710630" /><edge from="2123710630" id="2123710630_370482117" to="370482117" /><edge from="370482117" id="370482117_309977235" to="309977235" /><edge from="309977235" id="309977235_309977505" to="309977505" /><edge from="309977505" id="309977505_309977300" to="309977300" /><edge from="309977300" id="309977300_309977428" to="309977428" /><edge from="309977428" id="309977428_309977132" to="309977132" /><edge from="309977132" id="309977132_263991606" to="263991606" /><edge from="263991606" id="263991606_4679496738" to="4679496738" /><edge from="4679496738" id="4679496738_3996716075" to="3996716075" /><edge from="3996716075" id="3996716075_3996716076" to="3996716076" /><edge from="3996716076" id="3996716076_4679496928" to="4679496928" /><edge from="4679496928" id="4679496928_3996716077" to="3996716077" /><edge from="3996716077" id="3996716077_3996716078" to="3996716078" /><edge from="3996716078" id="3996716078_3996716079" to="3996716079" /><edge from="3996716079" id="3996716079_3996716080" to="3996716080" /><edge from="3996716080" id="3996716080_3996716081" to="3996716081" /><edge from="3996716081" id="3996716081_3996716085" to="3996716085" /><edge from="3996716085" id="3996716085_3996716082" to="3996716082" /><edge from="3996716082" id="3996716082_4679496921" to="4679496921" /><edge from="4679496921" id="4679496921_4679496920" to="4679496920" /><edge from="4679496920" id="4679496920_4679496919" to="4679496919" /><edge from="4679496919" id="4679496919_4679496918" to="4679496918" /><edge from="4679496918" id="4679496918_4679496787" to="4679496787" /><edge from="4679496787" id="4679496787_4679496917" to="4679496917" /><edge from="4679496917" id="4679496917_4679496916" to="4679496916" /><edge from="4679496916" id="4679496916_4679496785" to="4679496785" /><edge from="4679496785" id="4679496785_4679496784" to="4679496784" /><edge from="4679496784" id="4679496784_4679496891" to="4679496891" /><edge from="4679496891" id="4679496891_4679496783" to="4679496783" /><edge from="4679496783" id="4679496783_4679496782" to="4679496782" /><edge from="4679496782" id="4679496782_995942478" to="995942478" /><edge from="995942478" id="995942478_2247591096" to="2247591096" /><edge from="2247591096" id="2247591096_127390268" to="127390268" /><edge from="127390268" id="127390268_2247672420" to="2247672420" /><edge from="2247672420" id="2247672420_4679496898" to="4679496898" /><edge from="4679496898" id="4679496898_2247591101" to="2247591101" /><edge from="2247591101" id="2247591101_2247672417" to="2247672417" /><edge from="2247672417" id="2247672417_2247591117" to="2247591117" /><edge from="2247591117" id="2247591117_876910906" to="876910906" /><edge from="876910906" id="876910906_309984697" to="309984697" /><edge from="309984697" id="309984697_2247594822" to="2247594822" /><edge from="2247594822" id="2247594822_2247591111" to="2247591111" /><edge from="2247591111" id="2247591111_2247591102" to="2247591102" /><edge from="2247591102" id="2247591102_2247591108" to="2247591108" /><edge from="2247591108" id="2247591108_309978619" to="309978619" /><edge from="309978619" id="309978619_309989441" to="309989441" /><edge from="309989441" id="309989441_309989117" to="309989117" /><edge from="309989117" id="309989117_309988243" to="309988243" /><edge from="309988243" id="309988243_309985040" to="309985040" /><edge from="309985040" id="309985040_309984722" to="309984722" /><edge from="309984722" id="309984722_3207120850" to="3207120850" /><edge from="3207120850" id="3207120850_1657067346" to="1657067346" /><edge from="1657067346" id="1657067346_3207120848" to="3207120848" /><edge from="3207120848" id="3207120848_3207120849" to="3207120849" /><edge from="3207120849" id="3207120849_309981758" to="309981758" /><edge from="309981758" id="309981758_309981463" to="309981463" /><edge from="309981463" id="309981463_309979012" to="309979012" /><edge from="309979012" id="309979012_309979139" to="309979139" /><edge from="309979139" id="309979139_3187861096" to="3187861096" /><edge from="3187861096" id="3187861096_3187861097" to="3187861097" /><edge from="3187861097" id="3187861097_3187861098" to="3187861098" /><edge from="3187861098" id="3187861098_3187861099" to="3187861099" /><edge from="3187861099" id="3187861099_3187861093" to="3187861093" /><edge from="3187861093" id="3187861093_3207120856" to="3207120856" /><edge from="3207120856" id="3207120856_3207120859" to="3207120859" /><edge from="3207120859" id="3207120859_3207124661" to="3207124661" /><edge from="3207124661" id="3207124661_3207124664" to="3207124664" /><edge from="3207124664" id="3207124664_3207124663" to="3207124663" /><edge from="3207124663" id="3207124663_309991301" to="309991301" /><edge from="309991301" id="309991301_309991300" to="309991300" /><edge from="309991300" id="309991300_304709132" to="304709132" /><edge from="304709132" id="304709132_4959772490" to="4959772490" /><edge from="4959772490" id="4959772490_304709131" to="304709131" /><edge from="304709131" id="304709131_304709127" to="304709127" /><edge from="304709127" id="304709127_370474950" to="370474950" /><edge from="370474950" id="370474950_304709130" to="304709130" /><edge from="304709130" id="304709130_2940375808" to="2940375808" /><edge from="2940375808" id="2940375808_304709017" to="304709017" /><edge from="304709017" id="304709017_2080740190" to="2080740190" /><edge from="2080740190" id="2080740190_2940375806" to="2940375806" /><edge from="2940375806" id="2940375806_2940375828" to="2940375828" /><edge from="2940375828" id="2940375828_2940375827" to="2940375827" /><edge from="2940375827" id="2940375827_2940375805" to="2940375805" /><edge from="2940375805" id="2940375805_2940375803" to="2940375803" /><edge from="2940375803" id="2940375803_5314352327" to="5314352327" /><edge from="5314352327" id="5314352327_5314352326" to="5314352326" /><edge from="5314352326" id="5314352326_5314352325" to="5314352325" /><edge from="5314352325" id="5314352325_5314352324" to="5314352324" /><edge from="5314352324" id="5314352324_5314352323" to="5314352323" /><edge from="5314352323" id="5314352323_5314352322" to="5314352322" /><edge from="5314352322" id="5314352322_5314352321" to="5314352321" /><edge from="5314352321" id="5314352321_5314351820" to="5314351820" /><edge from="5314351820" id="5314351820_277366101" to="277366101" /><edge from="277366101" id="277366101_277366102" to="277366102" /><edge from="277366102" id="277366102_277366103" to="277366103" /><edge from="277366103" id="277366103_277366104" to="277366104" /><edge from="277366104" id="277366104_277366105" to="277366105" /><edge from="277366105" id="277366105_277366106" to="277366106" /><edge from="277366106" id="277366106_277366107" to="277366107" /><edge from="277366107" id="277366107_477305826" to="477305826" /><edge from="477305826" id="477305826_277366108" to="277366108" /><edge from="277366108" id="277366108_277366109" to="277366109" /><edge from="277366109" id="277366109_277366110" to="277366110" /><edge from="277366110" id="277366110_277366111" to="277366111" /><edge from="277366111" id="277366111_277366112" to="277366112" /><edge from="277366112" id="277366112_277366113" to="277366113" /><edge from="277366113" id="277366113_277366114" to="277366114" /><edge from="277366114" id="277366114_277366115" to="277366115" /><edge from="277366115" id="277366115_277366116" to="277366116" /><edge from="277366116" id="277366116_277366117" to="277366117" /><edge from="277366117" id="277366117_5406797159" to="5406797159" /><edge from="5406797159" id="5406797159_277366118" to="277366118" /><edge from="277366118" id="277366118_492939899" to="492939899" /><edge from="492939899" id="492939899_277366119" to="277366119" /><edge from="277366119" id="277366119_277366120" to="277366120" /><edge from="277366120" id="277366120_541122892" to="541122892" /><edge from="541122892" id="541122892_541122891" to="541122891" /><edge from="541122891" id="541122891_541122890" to="541122890" /><edge from="541122890" id="541122890_541122889" to="541122889" /><edge from="541122889" id="541122889_541122888" to="541122888" /><edge from="541122888" id="541122888_541122887" to="541122887" /><edge from="541122887" id="541122887_541122875" to="541122875" /><edge from="541122875" id="541122875_541122893" to="541122893" /><edge from="541122893" id="541122893_541122881" to="541122881" /><edge from="541122881" id="541122881_541122882" to="541122882" /><edge from="541122882" id="541122882_541122883" to="541122883" /><edge from="541122883" id="541122883_541122884" to="541122884" /><edge from="541122884" id="541122884_2567155992" to="2567155992" /><edge from="2567155992" id="2567155992_541122843" to="541122843" /><edge from="541122843" id="541122843_608962184" to="608962184" /><edge from="608962184" id="608962184_691082186" to="691082186" /><edge from="691082186" id="691082186_31477182" to="31477182" /><edge from="31477182" id="31477182_31477181" to="31477181" /><edge from="31477181" id="31477181_31477180" to="31477180" /><edge from="31477180" id="31477180_2774434013" to="2774434013" /><edge from="2774434013" id="2774434013_31477179" to="31477179" /><edge from="31477179" id="31477179_128893036" to="128893036" /><edge from="128893036" id="128893036_31477178" to="31477178" /><edge from="31477178" id="31477178_31477177" to="31477177" /><edge from="31477177" id="31477177_31477176" to="31477176" /><edge from="31477176" id="31477176_4698484056" to="4698484056" /><edge from="4698484056" id="4698484056_561538868" to="561538868" /><edge from="561538868" id="561538868_2384157684" to="2384157684" /><edge from="2384157684" id="2384157684_906234086" to="906234086" /><edge from="906234086" id="906234086_906234097" to="906234097" /><edge from="906234097" id="906234097_906234089" to="906234089" /><edge from="906234089" id="906234089_906234087" to="906234087" /><edge from="906234087" id="906234087_1192149947" to="1192149947" /><edge from="1192149947" id="1192149947_906234095" to="906234095" /><edge from="906234095" id="906234095_3067843936" to="3067843936" /><edge from="3067843936" id="3067843936_827113739" to="827113739" /><edge from="827113739" id="827113739_128874949" to="128874949" /><edge from="128874949" id="128874949_4698523258" to="4698523258" /><edge from="4698523258" id="4698523258_128874985" to="128874985" /><edge from="128874985" id="128874985_305913666" to="305913666" /><edge from="305913666" id="305913666_151451933" to="151451933" /><edge from="151451933" id="151451933_305913661" to="305913661" /><edge from="305913661" id="305913661_305913663" to="305913663" /><edge from="305913663" id="305913663_128882514" to="128882514" /><edge from="128882514" id="128882514_305912827" to="305912827" /><edge from="305912827" id="305912827_2006034702" to="2006034702" /><edge from="2006034702" id="2006034702_2006034698" to="2006034698" /><edge from="2006034698" id="2006034698_305912820" to="305912820" /><edge from="305912820" id="305912820_128882501" to="128882501" /><edge from="128882501" id="128882501_129279518" to="129279518" /><edge from="129279518" id="129279518_1033063213" to="1033063213" /><edge from="1033063213" id="1033063213_1521014627" to="1521014627" /><edge from="1521014627" id="1521014627_129279422" to="129279422" /><edge from="129279422" id="129279422_31477171" to="31477171" /><edge from="31477171" id="31477171_1519471011" to="1519471011" /><edge from="1519471011" id="1519471011_355817578" to="355817578" /><edge from="355817578" id="355817578_355817533" to="355817533" /><edge from="355817533" id="355817533_2684469926" to="2684469926" /><edge from="2684469926" id="2684469926_1965865394" to="1965865394" /><edge from="1965865394" id="1965865394_266727401" to="266727401" /><edge from="266727401" id="266727401_1519470963" to="1519470963" /><edge from="1519470963" id="1519470963_1965865396" to="1965865396" /><edge from="1965865396" id="1965865396_1965865389" to="1965865389" /><edge from="1965865389" id="1965865389_1965865392" to="1965865392" /><edge from="1965865392" id="1965865392_370959804" to="370959804" /><edge from="370959804" id="370959804_1519470952" to="1519470952" /><edge from="1519470952" id="1519470952_1519470752" to="1519470752" /><edge from="1519470752" id="1519470752_384023184" to="384023184" /><edge from="384023184" id="384023184_3823791811" to="3823791811" /><edge from="3823791811" id="3823791811_493102261" to="493102261" /><edge from="493102261" id="493102261_384024182" to="384024182" /><edge from="384024182" id="384024182_493102256" to="493102256" /><edge from="493102256" id="493102256_384023187" to="384023187" /><edge from="384023187" id="384023187_151434597" to="151434597" /><edge from="151434597" id="151434597_458645612" to="458645612" /><edge from="458645612" id="458645612_2158807363" to="2158807363" /><edge from="2158807363" id="2158807363_3109398486" to="3109398486" /><edge from="3109398486" id="3109398486_2149732939" to="2149732939" /><edge from="2149732939" id="2149732939_151434651" to="151434651" /><edge from="151434651" id="151434651_233247000" to="233247000" /><edge from="233247000" id="233247000_233245002" to="233245002" /><edge from="233245002" id="233245002_233243583" to="233243583" /><edge from="233243583" id="233243583_2214002872" to="2214002872" /><edge from="2214002872" id="2214002872_233243402" to="233243402" /><edge from="233243402" id="233243402_233270656" to="233270656" /><edge from="233270656" id="233270656_233247021" to="233247021" /><edge from="233247021" id="233247021_30287474" to="30287474" /><edge from="30287474" id="30287474_233247032" to="233247032" /><edge from="233247032" id="233247032_233270770" to="233270770" /><edge from="233270770" id="233270770_385176258" to="385176258" /><edge from="385176258" id="385176258_385176790" to="385176790" /><edge from="385176790" id="385176790_233270786" to="233270786" /><edge from="233270786" id="233270786_2457712013" to="2457712013" /><edge from="2457712013" id="2457712013_233270800" to="233270800" /><edge from="233270800" id="233270800_2457712012" to="2457712012" /><edge from="2457712012" id="2457712012_384006353" to="384006353" /><edge from="384006353" id="384006353_233270817" to="233270817" /><edge from="233270817" id="233270817_233255184" to="233255184" /><edge from="233255184" id="233255184_248969233" to="248969233" /><edge from="248969233" id="248969233_233262815" to="233262815" /><edge from="233262815" id="233262815_679680988" to="679680988" /><edge from="679680988" id="679680988_679680985" to="679680985" /><edge from="679680985" id="679680985_384005174" to="384005174" /><edge from="384005174" id="384005174_2204643284" to="2204643284" /><edge from="2204643284" id="2204643284_233274958" to="233274958" /><edge from="233274958" id="233274958_30287469" to="30287469" /><edge from="30287469" id="30287469_30287459" to="30287459" /><edge from="30287459" id="30287459_30287471" to="30287471" /><edge from="30287471" id="30287471_233262544" to="233262544" /><edge from="233262544" id="233262544_233262696" to="233262696" /><edge from="233262696" id="233262696_233314946" to="233314946" /><edge from="233314946" id="233314946_233314999" to="233314999" /><edge from="233314999" id="233314999_243645169" to="243645169" /><edge from="243645169" id="243645169_233314776" to="233314776" /><edge from="233314776" id="233314776_4297530208" to="4297530208" /><edge from="4297530208" id="4297530208_30287464" to="30287464" /><edge from="30287464" id="30287464_4297530210" to="4297530210" /><edge from="4297530210" id="4297530210_652430413" to="652430413" /><edge from="652430413" id="652430413_233275077" to="233275077" /><edge from="233275077" id="233275077_652430415" to="652430415" /><edge from="652430415" id="652430415_233314824" to="233314824" /><edge from="233314824" id="233314824_4294474621" to="4294474621" /><edge from="4294474621" id="4294474621_2200514713" to="2200514713" /><edge from="2200514713" id="2200514713_2200514717" to="2200514717" /><edge from="2200514717" id="2200514717_2200514729" to="2200514729" /><edge from="2200514729" id="2200514729_233314809" to="233314809" /><edge from="233314809" id="233314809_4294474619" to="4294474619" /><edge from="4294474619" id="4294474619_1367589913" to="1367589913" /><edge from="1367589913" id="1367589913_4294474618" to="4294474618" /><edge from="4294474618" id="4294474618_1367589915" to="1367589915" /><edge from="1367589915" id="1367589915_1367589914" to="1367589914" /><edge from="1367589914" id="1367589914_395285981" to="395285981" /><edge from="395285981" id="395285981_767746315" to="767746315" /><edge from="767746315" id="767746315_767726026" to="767726026" /><edge from="767726026" id="767726026_767726006" to="767726006" /><edge from="767726006" id="767726006_767752598" to="767752598" /><edge from="767752598" id="767752598_767726007" to="767726007" /><edge from="767726007" id="767726007_30287406" to="30287406" /><edge from="30287406" id="30287406_30287414" to="30287414" /><edge from="30287414" id="30287414_34160616" to="34160616" /><edge from="34160616" id="34160616_446051232" to="446051232" /><edge from="446051232" id="446051232_30287401" to="30287401" /><edge from="30287401" id="30287401_446051231" to="446051231" /><edge from="446051231" id="446051231_30287413" to="30287413" /><edge from="30287413" id="30287413_446051230" to="446051230" /><edge from="446051230" id="446051230_30287386" to="30287386" /><edge from="30287386" id="30287386_244222508" to="244222508" /><edge from="244222508" id="244222508_370243915" to="370243915" /><edge from="370243915" id="370243915_30287405" to="30287405" /><edge from="30287405" id="30287405_677245570" to="677245570" /><edge from="677245570" id="677245570_137182987" to="137182987" /><edge from="137182987" id="137182987_1985549817" to="1985549817" /><edge from="1985549817" id="1985549817_472236189" to="472236189" /><edge from="472236189" id="472236189_472236187" to="472236187" /><edge from="472236187" id="472236187_366082618" to="366082618" /><edge from="366082618" id="366082618_1725216373" to="1725216373" /><edge from="1725216373" id="1725216373_137181126" to="137181126" /><edge from="137181126" id="137181126_677245571" to="677245571" /><edge from="677245571" id="677245571_367849048" to="367849048" /><edge from="367849048" id="367849048_137181091" to="137181091" /><edge from="137181091" id="137181091_330775681" to="330775681" /><edge from="330775681" id="330775681_1985546060" to="1985546060" /><edge from="1985546060" id="1985546060_137182981" to="137182981" /><edge from="137182981" id="137182981_356215206" to="356215206" /><edge from="356215206" id="356215206_356215182" to="356215182" /><edge from="356215182" id="356215182_356215222" to="356215222" /><edge from="356215222" id="356215222_356215218" to="356215218" /><edge from="356215218" id="356215218_356215170" to="356215170" /><edge from="356215170" id="356215170_356215152" to="356215152" /><edge from="356215152" id="356215152_356215157" to="356215157" /><edge from="356215157" id="356215157_356215162" to="356215162" /><edge from="356215162" id="356215162_2505811398" to="2505811398" /><edge from="2505811398" id="2505811398_1492410162" to="1492410162" /><edge from="1492410162" id="1492410162_1492410185" to="1492410185" /><edge from="1492410185" id="1492410185_1492410156" to="1492410156" /><edge from="1492410156" id="1492410156_1492410217" to="1492410217" /><edge from="1492410217" id="1492410217_1492410213" to="1492410213" /><edge from="1492410213" id="1492410213_312718905" to="312718905" /><edge from="312718905" id="312718905_775942860" to="775942860" /><edge from="775942860" id="775942860_33238476" to="33238476" /><edge from="33238476" id="33238476_3933082771" to="3933082771" /><edge from="3933082771" id="3933082771_312718293" to="312718293" /><edge from="312718293" id="312718293_52600140" to="52600140" /><edge from="52600140" id="52600140_1725216623" to="1725216623" /><edge from="1725216623" id="1725216623_3933082767" to="3933082767" /><edge from="3933082767" id="3933082767_52600163" to="52600163" /><edge from="52600163" id="52600163_777828239" to="777828239" /><edge from="777828239" id="777828239_2383215085" to="2383215085" /><edge from="2383215085" id="2383215085_307350280" to="307350280" /><edge from="307350280" id="307350280_777833057" to="777833057" /><edge from="777833057" id="777833057_777833054" to="777833054" /><edge from="777833054" id="777833054_777829888" to="777829888" /><edge from="777829888" id="777829888_777829305" to="777829305" /><edge from="777829305" id="777829305_777832645" to="777832645" /><edge from="777832645" id="777832645_777832607" to="777832607" /><edge from="777832607" id="777832607_307350279" to="307350279" /><edge from="307350279" id="307350279_767737648" to="767737648" /><edge from="767737648" id="767737648_775946936" to="775946936" /><edge from="775946936" id="775946936_775946937" to="775946937" /><edge from="775946937" id="775946937_775933064" to="775933064" /><edge from="775933064" id="775933064_775933250" to="775933250" /><edge from="775933250" id="775933250_775933327" to="775933327" /><edge from="775933327" id="775933327_775933377" to="775933377" /><edge from="775933377" id="775933377_775933376" to="775933376" /><edge from="775933376" id="775933376_774545099" to="774545099" /><edge from="774545099" id="774545099_2383215095" to="2383215095" /><edge from="2383215095" id="2383215095_774545122" to="774545122" /><edge from="774545122" id="774545122_777759693" to="777759693" /><edge from="777759693" id="777759693_777696327" to="777696327" /><edge from="777696327" id="777696327_777697599" to="777697599" /><edge from="777697599" id="777697599_777697592" to="777697592" /><edge from="777697592" id="777697592_777697587" to="777697587" /><edge from="777697587" id="777697587_777703071" to="777703071" /><edge from="777703071" id="777703071_777743666" to="777743666" /><edge from="777743666" id="777743666_777703067" to="777703067" /><edge from="777703067" id="777703067_777746939" to="777746939" /><edge from="777746939" id="777746939_777710193" to="777710193" /><edge from="777710193" id="777710193_777721838" to="777721838" /><edge from="777721838" id="777721838_777710168" to="777710168" /><edge from="777710168" id="777710168_777787206" to="777787206" /><edge from="777787206" id="777787206_777778401" to="777778401" /><edge from="777778401" id="777778401_777778398" to="777778398" /><edge from="777778398" id="777778398_777787198" to="777787198" /><edge from="777787198" id="777787198_777778391" to="777778391" /><edge from="777778391" id="777778391_781005210" to="781005210" /><edge from="781005210" id="781005210_777778351" to="777778351" /><edge from="777778351" id="777778351_777778344" to="777778344" /><edge from="777778344" id="777778344_781005199" to="781005199" /><edge from="781005199" id="781005199_777778387" to="777778387" /><edge from="777778387" id="777778387_777778385" to="777778385" /><edge from="777778385" id="777778385_777775931" to="777775931" /><edge from="777775931" id="777775931_777775583" to="777775583" /><edge from="777775583" id="777775583_777778380" to="777778380" /><edge from="777778380" id="777778380_777778529" to="777778529" /><edge from="777778529" id="777778529_777778530" to="777778530" /><edge from="777778530" id="777778530_780982646" to="780982646" /><edge from="780982646" id="780982646_780979435" to="780979435" /><edge from="780979435" id="780979435_702465424" to="702465424" /><edge from="702465424" id="702465424_702465421" to="702465421" /><edge from="702465421" id="702465421_702459929" to="702459929" /><edge from="702459929" id="702459929_287629445" to="287629445" /><edge from="287629445" id="287629445_702459892" to="702459892" /><edge from="702459892" id="702459892_702459975" to="702459975" /><edge from="702459975" id="702459975_702459973" to="702459973" /><edge from="702459973" id="702459973_43251976" to="43251976" /><edge from="43251976" id="43251976_3218293536" to="3218293536" /><edge from="3218293536" id="3218293536_702451486" to="702451486" /><edge from="702451486" id="702451486_702451481" to="702451481" /><edge from="702451481" id="702451481_702451424" to="702451424" /><edge from="702451424" id="702451424_702462230" to="702462230" /><edge from="702462230" id="702462230_3394779117" to="3394779117" /><edge from="3394779117" id="3394779117_3094966843" to="3094966843" /><edge from="3094966843" id="3094966843_572005110" to="572005110" /><edge from="572005110" id="572005110_3094966842" to="3094966842" /><edge from="3094966842" id="3094966842_572004507" to="572004507" /><edge from="572004507" id="572004507_287630668" to="287630668" /><edge from="287630668" id="287630668_287630670" to="287630670" /><edge from="287630670" id="287630670_287630661" to="287630661" /><edge from="287630661" id="287630661_387152942" to="387152942" /><edge from="387152942" id="387152942_702451433" to="702451433" /><edge from="702451433" id="702451433_3394764077" to="3394764077" /><edge from="3394764077" id="3394764077_702478083" to="702478083" /><edge from="702478083" id="702478083_702451442" to="702451442" /><edge from="702451442" id="702451442_702451772" to="702451772" /><edge from="702451772" id="702451772_287630734" to="287630734" /><edge from="287630734" id="287630734_702450201" to="702450201" /><edge from="702450201" id="702450201_287630779" to="287630779" /><edge from="287630779" id="287630779_387152981" to="387152981" /><edge from="387152981" id="387152981_127601472" to="127601472" /><edge from="127601472" id="127601472_702378614" to="702378614" /><edge from="702378614" id="702378614_332549401" to="332549401" /><edge from="332549401" id="332549401_702378648" to="702378648" /><edge from="702378648" id="702378648_702378647" to="702378647" /><edge from="702378647" id="702378647_332544824" to="332544824" /><edge from="332544824" id="332544824_332543902" to="332543902" /><edge from="332543902" id="332543902_3394781452" to="3394781452" /><edge from="3394781452" id="3394781452_702363904" to="702363904" /><edge from="702363904" id="702363904_130038130" to="130038130" /><edge from="130038130" id="130038130_130038129" to="130038129" /><edge from="130038129" id="130038129_702363903" to="702363903" /><edge from="702363903" id="702363903_130038128" to="130038128" /><edge from="130038128" id="130038128_130038127" to="130038127" /><edge from="130038127" id="130038127_306383379" to="306383379" /><edge from="306383379" id="306383379_702363855" to="702363855" /><edge from="702363855" id="702363855_702363888" to="702363888" /><edge from="702363888" id="702363888_30942253" to="30942253" /><edge from="30942253" id="30942253_702351483" to="702351483" /><edge from="702351483" id="702351483_702351482" to="702351482" /><edge from="702351482" id="702351482_702351481" to="702351481" /><edge from="702351481" id="702351481_130038331" to="130038331" /><edge from="130038331" id="130038331_130038330" to="130038330" /><edge from="130038330" id="130038330_130038296" to="130038296" /><edge from="130038296" id="130038296_130038295" to="130038295" /><edge from="130038295" id="130038295_130038294" to="130038294" /><edge from="130038294" id="130038294_130038293" to="130038293" /><edge from="130038293" id="130038293_130038292" to="130038292" /><edge from="130038292" id="130038292_30942252" to="30942252" /><edge from="30942252" id="30942252_5556315220" to="5556315220" /><edge from="5556315220" id="5556315220_4793613068" to="4793613068" /><edge from="4793613068" id="4793613068_4794459457" to="4794459457" /><edge from="4794459457" id="4794459457_5556