<nodes><node id="767582208" x="144.9714637" y="-37.8077706" /><node id="767582209" x="144.9714503" y="-37.8077007" /><node id="767582210" x="144.9714383" y="-37.8076636" /><node id="767582211" x="144.9714248" y="-37.8075937" /><node id="767582212" x="144.9714275" y="-37.8075344" /><node id="5546311686" x="145.013087" y="-37.8043532" /><node id="309977100" x="145.0547873" y="-37.8037646" /><node id="767819790" x="144.9733521" y="-37.8031424" /><node id="767819792" x="144.9729887" y="-37.8030036" /><node id="767819793" x="144.9726252" y="-37.8028203" /><node id="4283908116" x="144.9767682" y="-37.8081037" /><node id="4283908117" x="144.9768225" y="-37.8081096" /><node id="1994687833" x="144.9509527" y="-37.7994889" /><node id="2384091386" x="144.973047" y="-37.8081722" /><node id="4785817343" x="144.9001206" y="-37.8070839" /><node id="4283908130" x="144.9837022" y="-37.8090155" /><node id="2245992484" x="145.0691388" y="-37.8113567" /><node id="1480081451" x="144.9818786" y="-37.7988696" /><node id="309977132" x="145.0499762" y="-37.8032243" /><node id="3830161454" x="144.9960208" y="-37.8053404" /><node id="2245992501" x="145.0653456" y="-37.8109024" /><node id="304701495" x="145.0327138" y="-37.8070778" /><node id="304701498" x="145.0313336" y="-37.8091816" /><node id="304701503" x="145.031765" y="-37.8069681" /><node id="2181268832" x="144.9638876" y="-37.8096177" /><node id="29827142" x="145.0016826" y="-37.7949992" /><node id="29827143" x="145.0039773" y="-37.79439" /><node id="29827145" x="145.0125737" y="-37.7914865" /><node id="29827146" x="145.0159145" y="-37.7909145" /><node id="29827147" x="145.0167138" y="-37.7908657" /><node id="29827148" x="145.0175828" y="-37.7908424" /><node id="29827149" x="145.0190956" y="-37.7908996" /><node id="995942478" x="145.0468773" y="-37.8012019" /><node id="29827151" x="145.0257769" y="-37.7912345" /><node id="29827152" x="145.0273085" y="-37.7911582" /><node id="29827153" x="145.0304966" y="-37.790816" /><node id="29827154" x="145.032392" y="-37.7906414" /><node id="29827155" x="145.035171" y="-37.7904144" /><node id="29827156" x="145.0371061" y="-37.7903551" /><node id="29827157" x="145.0399734" y="-37.7903376" /><node id="2181268836" x="144.9662571" y="-37.8089285" /><node id="4283908186" x="144.97475" y="-37.8117726" /><node id="4288151643" x="145.043796" y="-37.8083632" /><node id="29827166" x="145.0576569" y="-37.786496" /><node id="266076256" x="144.9935316" y="-37.7957663" /><node id="1492131937" x="144.9469261" y="-37.8112471" /><node id="250044517" x="144.9094581" y="-37.7976977" /><node id="250044518" x="144.9095868" y="-37.7976706" /><node id="250044519" x="144.9096757" y="-37.7976535" /><node id="128893036" x="145.0065284" y="-37.8014629" /><node id="1492131952" x="144.946345" y="-37.8114419" /><node id="623027560" x="144.8995837" y="-37.8052567" /><node id="2207661112" x="144.9464218" y="-37.7975151" /><node id="2190483577" x="144.961734" y="-37.8113038" /><node id="2481930362" x="144.9984334" y="-37.8055111" /><node id="2481930364" x="144.9986564" y="-37.8055106" /><node id="202522752" x="144.9194515" y="-37.7988644" /><node id="123338881" x="144.9261679" y="-37.7994891" /><node id="123338882" x="144.9260993" y="-37.7994552" /><node id="373653635" x="144.9162572" y="-37.8076845" /><node id="3783295108" x="144.9292309" y="-37.798107" /><node id="287629445" x="144.9489936" y="-37.8051406" /><node id="2383211201" x="144.9638737" y="-37.809549" /><node id="60653707" x="144.9505059" y="-37.8178344" /><node id="2190483597" x="144.9618758" y="-37.8112627" /><node id="60653712" x="144.9505662" y="-37.8179149" /><node id="309977235" x="145.0534053" y="-37.8036267" /><node id="176693402" x="144.9621293" y="-37.8111891" /><node id="472236187" x="144.9661252" y="-37.8019766" /><node id="472236189" x="144.9663317" y="-37.801998" /><node id="321118366" x="144.8904626" y="-37.8065067" /><node id="723970757" x="145.0041104" y="-37.8063943" /><node id="3306881184" x="144.9558159" y="-37.8118399" /><node id="2382446755" x="144.9022445" y="-37.79971" /><node id="122732708" x="144.9042063" y="-37.8050731" /><node id="2123710629" x="145.0547278" y="-37.8036908" /><node id="2123710630" x="145.0545815" y="-37.803714" /><node id="2382446762" x="144.9030942" y="-37.7994629" /><node id="224750279" x="144.9810214" y="-37.8038875" /><node id="2123710640" x="145.0546505" y="-37.8036811" /><node id="2123710642" x="145.0547753" y="-37.8037298" /><node id="176693430" x="144.9636534" y="-37.8107471" /><node id="2214002872" x="144.984773" y="-37.7961787" /><node id="2214002875" x="144.9845347" y="-37.7975621" /><node id="313254077" x="145.0692452" y="-37.8078167" /><node id="313254089" x="145.0700302" y="-37.8042422" /><node id="313254091" x="145.0716059" y="-37.8019851" /><node id="3783327949" x="144.8928096" y="-37.8051408" /><node id="2384091392" x="144.9660773" y="-37.8177849" /><node id="3783327952" x="144.8943695" y="-37.8053364" /><node id="3783327953" x="144.8954791" y="-37.8054756" /><node id="3783327954" x="144.8965308" y="-37.8056075" /><node id="309977300" x="145.0522895" y="-37.8034932" /><node id="4283908132" x="144.9836968" y="-37.8090493" /><node id="313254107" x="145.0711596" y="-37.8043727" /><node id="2774434013" x="145.0074344" y="-37.801955" /><node id="268533989" x="144.9751816" y="-37.8118185" /><node id="268533990" x="144.97473" y="-37.8117705" /><node id="268533991" x="144.9753622" y="-37.8118383" /><node id="268533994" x="144.9780313" y="-37.8110812" /><node id="373653750" x="144.916164" y="-37.807793" /><node id="313254135" x="145.0723068" y="-37.8044996" /><node id="202473725" x="144.9334558" y="-37.8040237" /><node id="443310344" x="144.9812545" y="-37.8018863" /><node id="2189156617" x="144.9604663" y="-37.8183381" /><node id="2189156618" x="144.9598199" y="-37.818533" /><node id="767746315" x="144.9737316" y="-37.8037808" /><node id="3394781452" x="144.9428588" y="-37.8053949" /><node id="2189156621" x="144.9596726" y="-37.8185913" /><node id="2189156622" x="144.9603602" y="-37.8183623" /><node id="2189156624" x="144.9605734" y="-37.8183225" /><node id="416817425" x="144.9791791" y="-37.8098651" /><node id="332546323" x="144.9428631" y="-37.8069205" /><node id="443310356" x="144.9801054" y="-37.8017691" /><node id="443310357" x="144.9801224" y="-37.8017504" /><node id="443310358" x="144.9801738" y="-37.80173" /><node id="443310359" x="144.9802289" y="-37.8017373" /><node id="443310360" x="144.9802674" y="-37.8017673" /><node id="541122843" x="145.0098313" y="-37.8029749" /><node id="723812636" x="145.0016057" y="-37.7950159" /><node id="541122845" x="145.0098722" y="-37.8029019" /><node id="541122846" x="145.0097556" y="-37.8026626" /><node id="2612216095" x="144.8673961" y="-37.8118061" /><node id="541122848" x="145.0096862" y="-37.8025155" /><node id="541122849" x="145.0096557" y="-37.802521" /><node id="2481930530" x="144.9972895" y="-37.8054701" /><node id="2612216101" x="144.867133" y="-37.8116507" /><node id="2612216102" x="144.8604529" y="-37.81021" /><node id="2612216103" x="144.8599359" y="-37.8130278" /><node id="2612216104" x="144.8601459" y="-37.813492" /><node id="2612216105" x="144.8627368" y="-37.8127679" /><node id="2612216107" x="144.8656263" y="-37.811994" /><node id="3879092525" x="144.8780087" y="-37.8197938" /><node id="2612216110" x="144.8657932" y="-37.8120379" /><node id="2612216111" x="144.8653077" y="-37.81208" /><node id="2612216112" x="144.869757" y="-37.8112021" /><node id="3811090737" x="145.0475407" y="-37.8013964" /><node id="541122875" x="145.0143051" y="-37.8042449" /><node id="541122878" x="145.0149943" y="-37.8051732" /><node id="541122879" x="145.0150051" y="-37.8051002" /><node id="541122881" x="145.0133855" y="-37.8043808" /><node id="541122882" x="145.0113857" y="-37.8035325" /><node id="541122883" x="145.011299" y="-37.8034403" /><node id="541122884" x="145.0110624" y="-37.8033633" /><node id="541122885" x="145.0108978" y="-37.8033292" /><node id="67617094" x="144.9201474" y="-37.7984668" /><node id="541122887" x="145.0152661" y="-37.8038741" /><node id="541122888" x="145.0152943" y="-37.8037353" /><node id="541122889" x="145.0148169" y="-37.8030119" /><node id="541122890" x="145.0146559" y="-37.8028636" /><node id="541122891" x="145.0142748" y="-37.8026561" /><node id="541122892" x="145.0139783" y="-37.8025079" /><node id="541122893" x="145.0136079" y="-37.8043758" /><node id="309977428" x="145.0512102" y="-37.8033763" /><node id="123330902" x="144.9318451" y="-37.7988976" /><node id="372998488" x="144.986353" y="-37.8090958" /><node id="137148242" x="144.9398347" y="-37.7998331" /><node id="313254237" x="145.0722559" y="-37.8044959" /><node id="313254240" x="145.0726395" y="-37.8082298" /><node id="3994641808" x="144.9954484" y="-37.7991186" /><node id="313254247" x="145.0734074" y="-37.8046216" /><node id="313254248" x="145.0732978" y="-37.8046082" /><node id="309969259" x="145.0333314" y="-37.8071492" /><node id="128876909" x="144.9971376" y="-37.8029669" /><node id="2383211240" x="144.9672473" y="-37.8174441" /><node id="4826317170" x="144.8994882" y="-37.8052901" /><node id="4826317172" x="144.8987275" y="-37.8061311" /><node id="4826317173" x="144.8984429" y="-37.8060103" /><node id="144720250" x="144.9572895" y="-37.819967" /><node id="309969280" x="145.0335515" y="-37.8057905" /><node id="5484183939" x="144.8823392" y="-37.8188401" /><node id="4826317191" x="144.9005784" y="-37.8042579" /><node id="4826317192" x="144.9005296" y="-37.8042652" /><node id="86674156" x="144.9388412" y="-37.7954076" /><node id="5315879306" x="145.0613796" y="-37.8035914" /><node id="3199558027" x="144.8684051" y="-37.8186985" /><node id="30220684" x="144.985669" y="-37.8090334" /><node id="3199558029" x="144.8684905" y="-37.8187081" /><node id="1801486737" x="144.8825799" y="-37.8043255" /><node id="583197079" x="144.9092465" y="-37.8008305" /><node id="304701851" x="145.0363777" y="-37.809801" /><node id="304701852" x="145.0368076" y="-37.8075511" /><node id="30220702" x="144.9826053" y="-37.8087173" /><node id="309977505" x="145.0523673" y="-37.8035017" /><node id="778802587" x="144.9572017" y="-37.8006979" /><node id="3176128935" x="144.9084002" y="-37.8063096" /><node id="3215106477" x="144.9500705" y="-37.8088781" /><node id="1492169321" x="144.9641074" y="-37.7985687" /><node id="3215106482" x="144.9499068" y="-37.8089549" /><node id="3215106484" x="144.9506601" y="-37.8085732" /><node id="3215106488" x="144.9521907" y="-37.8085577" /><node id="2202858911" x="144.9525821" y="-37.8210359" /><node id="3215106494" x="144.9531472" y="-37.8082738" /><node id="1833869763" x="144.86898" y="-37.8114223" /><node id="1833869764" x="144.8692141" y="-37.8113615" /><node id="2384091377" x="144.9730469" y="-37.8078343" /><node id="1928298965" x="145.0742633" y="-37.8066668" /><node id="3783312804" x="144.8840353" y="-37.8055281" /><node id="21643741" x="145.043447" y="-37.8022287" /><node id="711328222" x="144.9557643" y="-37.8076959" /><node id="723812831" x="145.0007945" y="-37.7951202" /><node id="4169720288" x="145.0306213" y="-37.80688" /><node id="875512290" x="145.0670854" y="-37.8049348" /><node id="875512291" x="145.0675843" y="-37.8050723" /><node id="26034662" x="144.9666843" y="-37.8098683" /><node id="26034663" x="144.9691215" y="-37.8091642" /><node id="26034664" x="144.9716374" y="-37.808432" /><node id="3480502762" x="144.9041304" y="-37.8052583" /><node id="778802599" x="144.9572741" y="-37.8005622" /><node id="26034670" x="144.9695403" y="-37.8100861" /><node id="250003539" x="144.8947191" y="-37.8103262" /><node id="296027697" x="144.9447809" y="-37.8120306" /><node id="778802602" x="144.9572821" y="-37.8005061" /><node id="4288151637" x="145.0300905" y="-37.8070383" /><node id="309076484" x="144.8954264" y="-37.80602" /><node id="309076493" x="144.8948981" y="-37.8059535" /><node id="778802605" x="144.9573618" y="-37.7998347" /><node id="309076499" x="144.8943185" y="-37.8058806" /><node id="2469585433" x="144.9927556" y="-37.8007122" /><node id="2401378846" x="144.9209406" y="-37.8020803" /><node id="2401378847" x="144.92813" y="-37.8028637" /><node id="21643809" x="145.0617198" y="-37.8049948" /><node id="746340900" x="144.9955622" y="-37.8086574" /><node id="746340901" x="144.9956561" y="-37.8086658" /><node id="746340902" x="144.9957231" y="-37.808687" /><node id="746340903" x="144.9957735" y="-37.8087196" /><node id="746340904" x="144.9958217" y="-37.8087323" /><node id="1833110279" x="144.9660039" y="-37.8178063" /><node id="29827150" x="145.0236992" y="-37.791227" /><node id="313139758" x="145.072345" y="-37.8081966" /><node id="746340925" x="144.99485" y="-37.8082486" /><node id="746340931" x="144.9952357" y="-37.8082873" /><node id="583189061" x="144.9057953" y="-37.805821" /><node id="746340935" x="144.9952813" y="-37.8079959" /><node id="746340938" x="144.9955836" y="-37.8080174" /><node id="313139789" x="145.0710986" y="-37.8080469" /><node id="320853432" x="144.8665395" y="-37.8035207" /><node id="309076566" x="144.8929709" y="-37.8068233" /><node id="309076568" x="144.8931762" y="-37.8057368" /><node id="3215102052" x="144.9530328" y="-37.8114807" /><node id="4748649050" x="144.8673759" y="-37.8185841" /><node id="313139805" x="145.0698174" y="-37.8078916" /><node id="976461324" x="144.8931343" y="-37.7991314" /><node id="4748649057" x="144.8675429" y="-37.8186026" /><node id="313139810" x="145.0691357" y="-37.8113727" /><node id="2247672420" x="145.0464615" y="-37.8011364" /><node id="636756582" x="144.9524384" y="-37.8204077" /><node id="313139816" x="145.0685612" y="-37.8077301" /><node id="777773673" x="144.950642" y="-37.805337" /><node id="321536619" x="144.8845918" y="-37.8194667" /><node id="373645935" x="144.9289451" y="-37.8088511" /><node id="36823669" x="144.9525489" y="-37.8212588" /><node id="36823670" x="144.9525762" y="-37.8207913" /><node id="36823671" x="144.9525242" y="-37.8206079" /><node id="36823672" x="144.9522882" y="-37.8201344" /><node id="36823673" x="144.9518778" y="-37.8195814" /><node id="36823674" x="144.9514071" y="-37.8190305" /><node id="36823675" x="144.9507526" y="-37.8181469" /><node id="36823676" x="144.9500539" y="-37.8170907" /><node id="36823678" x="144.9492358" y="-37.8158003" /><node id="36823679" x="144.9488375" y="-37.8153458" /><node id="36823680" x="144.9484848" y="-37.8149824" /><node id="1996808836" x="144.9940311" y="-37.7949441" /><node id="1996808838" x="144.992572" y="-37.8009874" /><node id="458645612" x="144.9887622" y="-37.7965938" /><node id="1888086807" x="144.960469" y="-37.7999186" /><node id="777912972" x="144.9565964" y="-37.8007628" /><node id="777912975" x="144.9567225" y="-37.800802" /><node id="313139857" x="145.0653425" y="-37.8109184" /><node id="1888086809" x="144.9605411" y="-37.7995959" /><node id="373645976" x="144.9291692" y="-37.8088654" /><node id="313139868" x="145.0682075" y="-37.8095528" /><node id="1928315552" x="145.0714894" y="-37.8080701" /><node id="1928315553" x="145.0715869" y="-37.8080472" /><node id="1928315555" x="145.0715632" y="-37.8080411" /><node id="3954625845" x="144.9534869" y="-37.8214326" /><node id="2684469926" x="144.9933386" y="-37.7984333" /><node id="309969575" x="145.0345106" y="-37.8054448" /><node id="746341037" x="144.9970679" y="-37.8032806" /><node id="583189167" x="144.9053412" y="-37.8061231" /><node id="583189170" x="144.9055173" y="-37.8059975" /><node id="1928315573" x="145.0715068" y="-37.8080526" /><node id="775946936" x="144.958323" y="-37.8041525" /><node id="775946937" x="144.9583352" y="-37.8041788" /><node id="1928315579" x="145.0716181" y="-37.8080716" /><node id="301548220" x="144.9852247" y="-37.8065557" /><node id="1928315581" x="145.0716271" y="-37.8081084" /><node id="301548223" x="144.9843136" y="-37.8065163" /><node id="372998848" x="144.9876645" y="-37.8092246" /><node id="313139905" x="145.0670874" y="-37.8094175" /><node id="1928315586" x="145.0714809" y="-37.808091" /><node id="1928315589" x="145.0716037" y="-37.8080577" /><node id="313139910" x="145.0667611" y="-37.8110883" /><node id="1928315592" x="145.0716264" y="-37.8080889" /><node id="3335201484" x="144.960494" y="-37.7999007" /><node id="321118927" x="144.890333" y="-37.8070838" /><node id="373067280" x="144.9188001" y="-37.7917396" /><node id="202522745" x="144.918175" y="-37.7996019" /><node id="306961188" x="144.9376079" y="-37.8099521" /><node id="3161948896" x="144.9553717" y="-37.80835" /><node id="3161948899" x="144.9553835" y="-37.8085846" /><node id="321118950" x="144.8847373" y="-37.8063575" /><node id="313139943" x="145.0653006" y="-37.8082966" /><node id="313139944" x="145.0654568" y="-37.8080066" /><node id="3394781929" x="144.9467976" y="-37.8069427" /><node id="313139946" x="145.0659671" y="-37.8074228" /><node id="373646060" x="144.9316054" y="-37.8090742" /><node id="3394781934" x="144.9449497" y="-37.8060618" /><node id="313139953" x="145.0641156" y="-37.8107715" /><node id="3161948917" x="144.9566447" y="-37.8087002" /><node id="3161948918" x="144.9566668" y="-37.8087314" /><node id="3161948919" x="144.9566699" y="-37.8087752" /><node id="3161948920" x="144.9566591" y="-37.8088409" /><node id="3161948921" x="144.9573385" y="-37.8089164" /><node id="3161948922" x="144.9576682" y="-37.8089395" /><node id="3313134378" x="144.9673919" y="-37.8174026" /><node id="3313134384" x="144.9671307" y="-37.8174781" /><node id="589742849" x="144.9548593" y="-37.8210279" /><node id="332544811" x="144.9400168" y="-37.7963053" /><node id="233243402" x="144.9847533" y="-37.7961766" /><node id="309969348" x="145.0341482" y="-37.8072436" /><node id="3161948943" x="144.9575203" y="-37.8089347" /><node id="1833110318" x="144.9645541" y="-37.8182286" /><node id="321118999" x="144.8876173" y="-37.8068017" /><node id="313140297" x="145.0677128" y="-37.8043793" /><node id="4283908889" x="144.9744946" y="-37.8121266" /><node id="3161948957" x="144.9567831" y="-37.8080116" /><node id="3218293536" x="144.948089" y="-37.804942" /><node id="3494863649" x="145.0685451" y="-37.8113042" /><node id="3494863650" x="145.0647971" y="-37.8108531" /><node id="313140003" x="145.0648414" y="-37.8031472" /><node id="313140004" x="145.0690637" y="-37.8036732" /><node id="67658533" x="144.9205457" y="-37.7977307" /><node id="321119022" x="144.8864745" y="-37.8131558" /><node id="224750388" x="144.980231" y="-37.8084683" /><node id="320491659" x="144.8792023" y="-37.8123333" /><node id="544367429" x="145.0096341" y="-37.8024781" /><node id="544367430" x="145.0095198" y="-37.8023772" /><node id="767583050" x="144.9717387" y="-37.8083862" /><node id="313140045" x="145.0644391" y="-37.8053189" /><node id="306381654" x="144.9418537" y="-37.8008323" /><node id="2797986650" x="144.973627" y="-37.8053518" /><node id="1354965851" x="144.9197252" y="-37.7987069" /><node id="2797986652" x="144.9736687" y="-37.8053481" /><node id="250004329" x="144.8978444" y="-37.8106872" /><node id="3933225836" x="144.956672" y="-37.8085645" /><node id="3933225837" x="144.9567031" y="-37.8084097" /><node id="3933225838" x="144.9567332" y="-37.80826" /><node id="250004335" x="144.8982489" y="-37.8058549" /><node id="3235486844" x="144.9187124" y="-37.7957617" /><node id="29827957" x="145.020442" y="-37.7909929" /><node id="767665017" x="144.9734019" y="-37.8077306" /><node id="250291067" x="144.8895409" y="-37.8210879" /><node id="767665021" x="144.9734064" y="-37.8076399" /><node id="767665024" x="144.9733475" y="-37.8076336" /><node id="2187770688" x="144.9646963" y="-37.8115103" /><node id="390923144" x="144.938782" y="-37.7957991" /><node id="2515068396" x="144.8871489" y="-37.8066675" /><node id="313140107" x="145.0657844" y="-37.8054867" /><node id="313140108" x="145.0661994" y="-37.8033223" /><node id="387266371" x="144.9557719" y="-37.8118119" /><node id="30220442" x="144.9421534" y="-37.8043201" /><node id="1725211551" x="144.9952669" y="-37.798104" /><node id="1725211552" x="144.9947559" y="-37.7979961" /><node id="1725211554" x="144.9945498" y="-37.797982" /><node id="311902363" x="145.0571107" y="-37.8040933" /><node id="1725211556" x="144.9951607" y="-37.798092" /><node id="663471013" x="144.9481401" y="-37.8115451" /><node id="3271836584" x="144.9913299" y="-37.8017648" /><node id="3271836585" x="144.9914935" y="-37.8016715" /><node id="3271836586" x="144.9911126" y="-37.8018474" /><node id="3271836587" x="144.9919763" y="-37.8014787" /><node id="3271836588" x="144.9909222" y="-37.8019513" /><node id="3271836589" x="144.9906647" y="-37.8021526" /><node id="3271836590" x="144.9916973" y="-37.8015889" /><node id="321540253" x="144.8846632" y="-37.8191224" /><node id="2291073971" x="144.9639129" y="-37.8096231" /><node id="2291073974" x="144.9627945" y="-37.8098005" /><node id="2291073975" x="144.9622759" y="-37.8099505" /><node id="2291073976" x="144.961391" y="-37.8102099" /><node id="2291073977" x="144.9612489" y="-37.8102507" /><node id="1192149947" x="145.0033788" y="-37.8007741" /><node id="2291073980" x="144.9607978" y="-37.81038" /><node id="233243583" x="144.9856696" y="-37.7962766" /><node id="2291073984" x="144.9589795" y="-37.8109096" /><node id="571835329" x="144.8725314" y="-37.813763" /><node id="571835330" x="144.8729942" y="-37.8137549" /><node id="2291073987" x="144.9590364" y="-37.8110331" /><node id="2291073989" x="144.9575123" y="-37.811333" /><node id="2291073990" x="144.9569647" y="-37.8114948" /><node id="277367206" x="145.000885" y="-37.8061167" /><node id="2291073992" x="144.9563065" y="-37.8116918" /><node id="400753614" x="144.93699" y="-37.8097758" /><node id="1985549819" x="144.9668689" y="-37.8007677" /><node id="266077158" x="144.9999845" y="-37.7952082" /><node id="320480232" x="144.8789476" y="-37.8198987" /><node id="2081997802" x="144.9909928" y="-37.8095236" /><node id="2081997803" x="144.9907512" y="-37.8095507" /><node id="2081997804" x="144.9910917" y="-37.8094874" /><node id="35726317" x="144.9355524" y="-37.8098252" /><node id="35726318" x="144.9345452" y="-37.8096912" /><node id="35726319" x="144.9344447" y="-37.8097006" /><node id="35726320" x="144.9343331" y="-37.8097685" /><node id="35726321" x="144.934281" y="-37.809913" /><node id="35726322" x="144.9342988" y="-37.8100939" /><node id="35726324" x="144.9343067" y="-37.810347" /><node id="35726326" x="144.9342638" y="-37.8106454" /><node id="35726327" x="144.933766" y="-37.8109302" /><node id="35726328" x="144.9336029" y="-37.8109098" /><node id="4765991929" x="144.8936565" y="-37.8199271" /><node id="4765991930" x="144.8936672" y="-37.819914" /><node id="4765991931" x="144.8936825" y="-37.8199043" /><node id="277367204" x="145.0010888" y="-37.8064282" /><node id="245537622" x="144.96556" y="-37.8108376" /><node id="3285623814" x="144.9317326" y="-37.8090858" /><node id="298099723" x="144.9785723" y="-37.8016545" /><node id="4785789439" x="144.8917627" y="-37.813615" /><node id="1367589913" x="144.9738512" y="-37.8041269" /><node id="1367589914" x="144.9736767" y="-37.8041063" /><node id="1367589915" x="144.973728" y="-37.8041119" /><node id="313140253" x="145.068976" y="-37.8041119" /><node id="3363087390" x="144.9040308" y="-37.8050226" /><node id="703554591" x="144.955488" y="-37.809304" /><node id="703554592" x="144.9580852" y="-37.8092218" /><node id="1994687829" x="144.9502349" y="-37.7988574" /><node id="30942252" x="144.9392258" y="-37.805919" /><node id="30942253" x="144.9414292" y="-37.8054613" /><node id="332544861" x="144.9509981" y="-37.8120549" /><node id="35726386" x="144.9318949" y="-37.8104284" /><node id="35726387" x="144.9317919" y="-37.8103402" /><node id="35726388" x="144.9316889" y="-37.81013" /><node id="30942261" x="144.9485629" y="-37.8084721" /><node id="35726390" x="144.9317577" y="-37.8095594" /><node id="35726391" x="144.9316707" y="-37.8094204" /><node id="2266563642" x="144.954089" y="-37.8087118" /><node id="2266563644" x="144.9554367" y="-37.8086055" /><node id="2266563645" x="144.9555539" y="-37.8086041" /><node id="1833110288" x="144.9623989" y="-37.8188564" /><node id="2266563647" x="144.9553048" y="-37.8084684" /><node id="2266563650" x="144.9556063" y="-37.8085821" /><node id="2266563652" x="144.9553345" y="-37.8083835" /><node id="2266563653" x="144.955315" y="-37.8085122" /><node id="2266563654" x="144.9553115" y="-37.8084242" /><node id="5556315207" x="144.9357896" y="-37.807394" /><node id="2102862920" x="144.8695636" y="-37.8121616" /><node id="2266563657" x="144.9556039" y="-37.8086527" /><node id="2266563658" x="144.9554954" y="-37.8086122" /><node id="2266563661" x="144.9550389" y="-37.808443" /><node id="2266563663" x="144.9548196" y="-37.8085051" /><node id="2102862931" x="144.8694885" y="-37.8120281" /><node id="5556315220" x="144.9391348" y="-37.8059806" /><node id="2102862933" x="144.8694276" y="-37.8120858" /><node id="4061250646" x="144.9700611" y="-37.8009521" /><node id="3506373724" x="145.0334112" y="-37.8094378" /><node id="214131808" x="145.0110667" y="-37.8047418" /><node id="222987367" x="144.9880745" y="-37.8067851" /><node id="2102862953" x="144.8694869" y="-37.811942" /><node id="623012711" x="144.8866643" y="-37.8045372" /><node id="129549424" x="144.9315798" y="-37.8093501" /><node id="477078642" x="144.9747377" y="-37.8063865" /><node id="214131831" x="145.0126756" y="-37.8049609" /><node id="777905273" x="144.9568101" y="-37.8008218" /><node id="777905274" x="144.956866" y="-37.8008296" /><node id="2102862974" x="144.86929" y="-37.812223" /><node id="2102862976" x="144.8696425" y="-37.8121811" /><node id="2102862978" x="144.8694939" y="-37.8121065" /><node id="2102862980" x="144.8694957" y="-37.8121642" /><node id="122725511" x="144.8995547" y="-37.8154413" /><node id="1277946732" x="144.8914808" y="-37.7992781" /><node id="2102862986" x="144.8671095" y="-37.81277" /><node id="3367904400" x="144.9672264" y="-37.8106913" /><node id="214131858" x="145.0143661" y="-37.8051344" /><node id="3367904404" x="144.9662846" y="-37.8089888" /><node id="313140381" x="145.0671432" y="-37.8034387" /><node id="3367904414" x="144.9661053" y="-37.808853" /><node id="3367904416" x="144.9685643" y="-37.8081396" /><node id="3367904421" x="144.963648" y="-37.8095663" /><node id="2096325801" x="144.953491" y="-37.8008011" /><node id="493102256" x="144.9894831" y="-37.7972886" /><node id="493102261" x="144.9895235" y="-37.7973194" /><node id="249996470" x="144.9058304" y="-37.8015146" /><node id="4794459319" x="144.9357858" y="-37.8042715" /><node id="2247591096" x="145.0467282" y="-37.8010258" /><node id="2247591097" x="145.0384415" y="-37.8041888" /><node id="250291386" x="144.887981" y="-37.8133263" /><node id="622959751" x="144.9063954" y="-37.8004987" /><node id="2247591101" x="145.0461477" y="-37.8012578" /><node id="2247591102" x="145.0449066" y="-37.8015671" /><node id="2247591106" x="145.0384339" y="-37.8040996" /><node id="250291395" x="144.8834758" y="-37.81282" /><node id="2247591108" x="145.0449145" y="-37.8015101" /><node id="250291397" x="144.8749443" y="-37.8118517" /><node id="3933095111" x="144.9703478" y="-37.8076153" /><node id="2096325832" x="144.9532056" y="-37.8010147" /><node id="2096325834" x="144.9541207" y="-37.8003145" /><node id="250291403" x="144.8708708" y="-37.8113845" /><node id="2247591117" x="145.0459901" y="-37.8013141" /><node id="250291406" x="144.8700008" y="-37.811118" /><node id="250291418" x="144.8677413" y="-37.8110214" /><node id="560997595" x="144.9384715" y="-37.8102567" /><node id="560997596" x="144.935871" y="-37.8097826" /><node id="320086224" x="144.8836994" y="-37.8073926" /><node id="250002299" x="144.9004949" y="-37.8062754" /><node id="560997606" x="144.9358427" y="-37.8098999" /><node id="320086225" x="144.8845169" y="-37.8074944" /><node id="320086226" x="144.878043" y="-37.8122031" /><node id="1277943040" x="144.9013126" y="-37.7999562" /><node id="54401918" x="144.9527616" y="-37.8009428" /><node id="477078776" x="144.9742983" y="-37.8068638" /><node id="2245788924" x="145.0449397" y="-37.8084995" /><node id="127605795" x="144.9445886" y="-37.7973091" /><node id="2245788930" x="145.057388" y="-37.8099602" /><node id="313140483" x="145.0689637" y="-37.8002966" /><node id="4794459421" x="144.9345721" y="-37.8041694" /><node id="4794459422" x="144.9351038" y="-37.8041902" /><node id="2841675040" x="144.9689175" y="-37.8080366" /><node id="320086235" x="144.8764376" y="-37.8120209" /><node id="2841675044" x="144.9681941" y="-37.8082466" /><node id="4794459429" x="144.9342" y="-37.8041473" /><node id="320488742" x="144.8723406" y="-37.8136703" /><node id="2841675047" x="144.9664548" y="-37.8087515" /><node id="30287144" x="144.9135626" y="-37.7947181" /><node id="30287145" x="144.9145277" y="-37.7942891" /><node id="1700619562" x="145.0293849" y="-37.8082142" /><node id="4794459435" x="144.9360435" y="-37.8043398" /><node id="4794459436" x="144.93628" y="-37.8044402" /><node id="4794459437" x="144.9364942" y="-37.8045642" /><node id="4794459438" x="144.9366874" y="-37.8047241" /><node id="313254109" x="145.0704159" y="-37.8079647" /><node id="250291504" x="144.8689082" y="-37.8111131" /><node id="4794459442" x="144.9372379" y="-37.8055398" /><node id="4794459443" x="144.9375499" y="-37.8060755" /><node id="2841675060" x="144.9632669" y="-37.8096656" /><node id="2841675061" x="144.9632948" y="-37.8096688" /><node id="4794459446" x="144.9420452" y="-37.8089408" /><node id="30944137" x="144.9782577" y="-37.8097648" /><node id="1725203768" x="144.995205" y="-37.7984701" /><node id="3480506591" x="144.8695319" y="-37.8116874" /><node id="4794459456" x="144.9376009" y="-37.8065934" /><node id="4794459457" x="144.9381114" y="-37.8063763" /><node id="287630661" x="144.9453262" y="-37.8040848" /><node id="2181268810" x="144.9590339" y="-37.8110279" /><node id="4794459467" x="144.9448089" y="-37.8117346" /><node id="287630668" x="144.9472998" y="-37.8043264" /><node id="4794459469" x="