<nodes><node id="767582212" x="144.9714275" y="-37.8075344" /><node id="227770375" x="144.9847551" y="-37.8007723" /><node id="4451510010" x="144.9638972" y="-37.8097121" /><node id="373650775" x="144.9259148" y="-37.8087219" /><node id="309977100" x="145.0547873" y="-37.8037646" /><node id="4000710669" x="145.038027" y="-37.807692" /><node id="4283908115" x="144.9768616" y="-37.8078965" /><node id="4283908116" x="144.9767682" y="-37.8081037" /><node id="4283908117" x="144.9768225" y="-37.8081096" /><node id="263987223" x="144.9562464" y="-37.8036271" /><node id="309977112" x="145.048698" y="-37.8036061" /><node id="1463656474" x="144.9996422" y="-37.8158673" /><node id="702376250" x="144.9414574" y="-37.8052642" /><node id="4283908124" x="144.9785084" y="-37.8084589" /><node id="4283908126" x="144.9785017" y="-37.808494" /><node id="4283908130" x="144.9837022" y="-37.8090155" /><node id="4283908132" x="144.9836968" y="-37.8090493" /><node id="2245992486" x="145.0704286" y="-37.8115111" /><node id="1463656488" x="144.9996785" y="-37.8158734" /><node id="4283908138" x="144.9756474" y="-37.8094755" /><node id="4283908139" x="144.9756838" y="-37.8094795" /><node id="309977132" x="145.0499762" y="-37.8032243" /><node id="3830161454" x="144.9960208" y="-37.8053404" /><node id="2245992501" x="145.0653456" y="-37.8109024" /><node id="304701495" x="145.0327138" y="-37.8070778" /><node id="475511476" x="144.9551138" y="-37.8028311" /><node id="304701498" x="145.0313336" y="-37.8091816" /><node id="320847931" x="144.8717516" y="-37.8073383" /><node id="304701503" x="145.031765" y="-37.8069681" /><node id="320494404" x="144.8712899" y="-37.8114288" /><node id="3067843936" x="145.0031671" y="-37.8008447" /><node id="850722885" x="145.0379324" y="-37.8076811" /><node id="4288151624" x="145.0353216" y="-37.807939" /><node id="2383211191" x="144.9638587" y="-37.8095052" /><node id="33366760" x="144.93629" y="-37.8059031" /><node id="2187770692" x="144.9638164" y="-37.8096383" /><node id="995942483" x="145.0469607" y="-37.8016175" /><node id="4288151641" x="145.0424699" y="-37.8082052" /><node id="4283908186" x="144.97475" y="-37.8117726" /><node id="4283908187" x="145.014663" y="-37.8120407" /><node id="995942493" x="145.0468685" y="-37.8015468" /><node id="541122855" x="145.0101775" y="-37.8024988" /><node id="1492131937" x="144.9469261" y="-37.8112471" /><node id="583180388" x="144.9243435" y="-37.7983032" /><node id="227770471" x="144.9852092" y="-37.8008205" /><node id="273111770" x="144.8848485" y="-37.8057981" /><node id="128893036" x="145.0065284" y="-37.8014629" /><node id="995942509" x="145.0469795" y="-37.8016642" /><node id="364847214" x="144.9797968" y="-37.8041294" /><node id="364847215" x="144.9797334" y="-37.8042924" /><node id="1492131952" x="144.946345" y="-37.8114419" /><node id="309977202" x="145.053019" y="-37.805534" /><node id="320847987" x="144.8719173" y="-37.8064569" /><node id="304716478" x="145.0387618" y="-37.8149192" /><node id="2190483577" x="144.961734" y="-37.8113038" /><node id="2481930362" x="144.9984334" y="-37.8055111" /><node id="2481930364" x="144.9986564" y="-37.8055106" /><node id="2190483582" x="144.9609332" y="-37.8092157" /><node id="2190483583" x="144.961445" y="-37.8103271" /><node id="1492131968" x="144.9471231" y="-37.8111783" /><node id="123338881" x="144.9261679" y="-37.7994891" /><node id="2190483586" x="144.9627761" y="-37.8132178" /><node id="2190483587" x="144.9613957" y="-37.8102201" /><node id="2190483588" x="144.9612538" y="-37.8102613" /><node id="273117206" x="144.8941918" y="-37.8047539" /><node id="2383211201" x="144.9638737" y="-37.809549" /><node id="2190483592" x="144.9623539" y="-37.812301" /><node id="2190483594" x="144.9623095" y="-37.8122047" /><node id="2190483595" x="144.9611666" y="-37.8097289" /><node id="2190483597" x="144.9618758" y="-37.8112627" /><node id="1982442024" x="145.0018039" y="-37.8147091" /><node id="623027565" x="144.8997661" y="-37.8050745" /><node id="52506648" x="144.9362746" y="-37.8094878" /><node id="309977235" x="145.0534053" y="-37.8036267" /><node id="4785817347" x="144.8984689" y="-37.8066488" /><node id="176693402" x="144.9621293" y="-37.8111891" /><node id="311902363" x="145.0571107" y="-37.8040933" /><node id="30220444" x="144.968907" y="-37.8072639" /><node id="52506650" x="144.936406" y="-37.8094549" /><node id="321118366" x="144.8904626" y="-37.8065067" /><node id="723970757" x="145.0041104" y="-37.8063943" /><node id="3306881184" x="144.9558159" y="-37.8118399" /><node id="2123710626" x="145.0551339" y="-37.8018949" /><node id="2382446755" x="144.9022445" y="-37.79971" /><node id="122732708" x="144.9042063" y="-37.8050731" /><node id="2123710629" x="145.0547278" y="-37.8036908" /><node id="2123710630" x="145.0545815" y="-37.803714" /><node id="2123710631" x="145.0550662" y="-37.8019488" /><node id="2123710632" x="145.0549113" y="-37.8018862" /><node id="518303772" x="145.0300838" y="-37.8140329" /><node id="2382446762" x="144.9030942" y="-37.7994629" /><node id="723970759" x="145.0031743" y="-37.8063953" /><node id="1985429676" x="144.9875868" y="-37.8001967" /><node id="2123710637" x="145.0549743" y="-37.8019461" /><node id="2123710638" x="145.054783" y="-37.8037962" /><node id="2123710640" x="145.0546505" y="-37.8036811" /><node id="309977265" x="145.0518855" y="-37.8054051" /><node id="2123710642" x="145.0547753" y="-37.8037298" /><node id="332546227" x="144.94895" y="-37.8088897" /><node id="332546228" x="144.9486614" y="-37.8085702" /><node id="176693430" x="144.9636534" y="-37.8107471" /><node id="2383211209" x="144.9643295" y="-37.8106271" /><node id="2383211210" x="144.96438" y="-37.8106409" /><node id="313254089" x="145.0700302" y="-37.8042422" /><node id="313254090" x="145.0704833" y="-37.8018347" /><node id="3783327949" x="144.8928096" y="-37.8051408" /><node id="3783327952" x="144.8943695" y="-37.8053364" /><node id="3783327953" x="144.8954791" y="-37.8054756" /><node id="3783327954" x="144.8965308" y="-37.8056075" /><node id="309977300" x="145.0522895" y="-37.8034932" /><node id="273120107" x="144.8868712" y="-37.8060534" /><node id="313254107" x="145.0711596" y="-37.8043727" /><node id="3222703072" x="144.9431475" y="-37.8016437" /><node id="313254109" x="145.0704159" y="-37.8079647" /><node id="306905310" x="144.938994" y="-37.810713" /><node id="367132897" x="144.9738332" y="-37.8092779" /><node id="268533989" x="144.9751816" y="-37.8118185" /><node id="268533990" x="144.97473" y="-37.8117705" /><node id="268533991" x="144.9753622" y="-37.8118383" /><node id="4787388648" x="144.9044387" y="-37.804559" /><node id="4787388649" x="144.9045057" y="-37.8044195" /><node id="702376281" x="144.941927" y="-37.8055853" /><node id="781099251" x="144.9454775" y="-37.8025456" /><node id="373653750" x="144.916164" y="-37.807793" /><node id="313254135" x="145.0723068" y="-37.8044996" /><node id="313441837" x="145.0683757" y="-37.808654" /><node id="202473725" x="144.9334558" y="-37.8040237" /><node id="320086270" x="144.8814094" y="-37.8104841" /><node id="371949823" x="144.9692898" y="-37.8049166" /><node id="2123710644" x="145.0547161" y="-37.8038552" /><node id="278913067" x="144.9804171" y="-37.8134861" /><node id="130040068" x="144.9358503" y="-37.8047916" /><node id="278913068" x="144.9802213" y="-37.813503" /><node id="373653770" x="144.9158538" y="-37.8077456" /><node id="827113739" x="145.002678" y="-37.8008005" /><node id="3394781452" x="144.9428588" y="-37.8053949" /><node id="443310349" x="144.9814357" y="-37.8019574" /><node id="443310350" x="144.981398" y="-37.8019909" /><node id="227508496" x="144.9593225" y="-37.8096849" /><node id="3555805912" x="144.9370566" y="-37.8051664" /><node id="332546323" x="144.9428631" y="-37.8069205" /><node id="210772014" x="145.0289511" y="-37.8065141" /><node id="541122843" x="145.0098313" y="-37.8029749" /><node id="541122845" x="145.0098722" y="-37.8029019" /><node id="541122846" x="145.0097556" y="-37.8026626" /><node id="541122847" x="145.0097376" y="-37.8026001" /><node id="541122848" x="145.0096862" y="-37.8025155" /><node id="541122849" x="145.0096557" y="-37.802521" /><node id="2481930530" x="144.9972895" y="-37.8054701" /><node id="2383211227" x="144.966482" y="-37.8154393" /><node id="541122852" x="145.0098486" y="-37.80241" /><node id="2612216101" x="144.867133" y="-37.8116507" /><node id="2612216102" x="144.8604529" y="-37.81021" /><node id="2612216103" x="144.8599359" y="-37.8130278" /><node id="2612216104" x="144.8601459" y="-37.813492" /><node id="2612216105" x="144.8627368" y="-37.8127679" /><node id="2612216106" x="144.8640014" y="-37.8124325" /><node id="3221168427" x="144.8878457" y="-37.8023388" /><node id="541122860" x="145.0110204" y="-37.802111" /><node id="2612216109" x="144.8675799" y="-37.8114934" /><node id="2612216110" x="144.8657932" y="-37.8120379" /><node id="2612216111" x="144.8653077" y="-37.81208" /><node id="2612216112" x="144.869757" y="-37.8112021" /><node id="321118513" x="144.890653" y="-37.8133218" /><node id="321118514" x="144.8912744" y="-37.8133981" /><node id="703550857" x="144.957781" y="-37.8101317" /><node id="4804868831" x="144.9319348" y="-37.7989908" /><node id="541122878" x="145.0149943" y="-37.8051732" /><node id="541122879" x="145.0150051" y="-37.8051002" /><node id="541122881" x="145.0133855" y="-37.8043808" /><node id="541122882" x="145.0113857" y="-37.8035325" /><node id="541122883" x="145.011299" y="-37.8034403" /><node id="541122884" x="145.0110624" y="-37.8033633" /><node id="541122885" x="145.0108978" y="-37.8033292" /><node id="67617094" x="144.9201474" y="-37.7984668" /><node id="4804868833" x="144.9326219" y="-37.7990373" /><node id="356474935" x="144.9920191" y="-37.7997424" /><node id="309977425" x="145.0503845" y="-37.8012791" /><node id="309977428" x="145.0512102" y="-37.8033763" /><node id="123330902" x="144.9318451" y="-37.7988976" /><node id="320487768" x="144.8774131" y="-37.8188913" /><node id="541122905" x="145.0094654" y="-37.8027452" /><node id="137148242" x="144.9398347" y="-37.7998331" /><node id="313254237" x="145.0722559" y="-37.8044959" /><node id="313254240" x="145.0726395" y="-37.8082298" /><node id="309977442" x="145.0515757" y="-37.8014252" /><node id="26034531" x="144.9593848" y="-37.8119849" /><node id="311902564" x="145.0544711" y="-37.804816" /><node id="3163980133" x="144.9572014" y="-37.803422" /><node id="313254247" x="145.0734074" y="-37.8046216" /><node id="313254248" x="145.0732978" y="-37.8046082" /><node id="309969259" x="145.0333314" y="-37.8071492" /><node id="2102878576" x="144.869824" y="-37.8109765" /><node id="304701810" x="145.0354272" y="-37.8073915" /><node id="4826317171" x="144.8986075" y="-37.8062638" /><node id="2102878580" x="144.8698211" y="-37.811136" /><node id="4826317173" x="144.8984429" y="-37.8060103" /><node id="4826317174" x="144.8986168" y="-37.8065385" /><node id="4826317175" x="144.8986434" y="-37.8064845" /><node id="4826317176" x="144.8986785" y="-37.8064077" /><node id="4826317177" x="144.8986453" y="-37.8063824" /><node id="4826317178" x="144.8986168" y="-37.8063346" /><node id="4826317179" x="144.8986054" y="-37.8063066" /><node id="95562821" x="144.9301719" y="-37.802308" /><node id="309969280" x="145.0335515" y="-37.8057905" /><node id="547586436" x="144.9844808" y="-37.813942" /><node id="547586437" x="144.9847561" y="-37.8139718" /><node id="3071689094" x="145.0351842" y="-37.8086512" /><node id="4826317191" x="144.9005784" y="-37.8042579" /><node id="4826317192" x="144.9005296" y="-37.8042652" /><node id="5315879306" x="145.0613796" y="-37.8035914" /><node id="30220684" x="144.985669" y="-37.8090334" /><node id="319628837" x="145.0578519" y="-37.8077413" /><node id="537510286" x="145.0286453" y="-37.8073268" /><node id="5315879311" x="145.0618975" y="-37.8007134" /><node id="309977489" x="145.0536827" y="-37.8016837" /><node id="583197079" x="144.9092465" y="-37.8008305" /><node id="321118618" x="144.8942245" y="-37.81026" /><node id="304701851" x="145.0363777" y="-37.809801" /><node id="304701852" x="145.0368076" y="-37.8075511" /><node id="3215106461" x="144.9501333" y="-37.8105046" /><node id="30220702" x="144.9826053" y="-37.8087173" /><node id="309977505" x="145.0523673" y="-37.8035017" /><node id="3176128932" x="144.9083329" y="-37.8064987" /><node id="3176128935" x="144.9084002" y="-37.8063096" /><node id="709706157" x="144.9363255" y="-37.8100244" /><node id="709706159" x="144.9363886" y="-37.8100419" /><node id="21643697" x="145.0278815" y="-37.8136425" /><node id="3215106482" x="144.9499068" y="-37.8089549" /><node id="709706163" x="144.9366347" y="-37.8101193" /><node id="3215106484" x="144.9506601" y="-37.8085732" /><node id="3215106488" x="144.9521907" y="-37.8085577" /><node id="3215106490" x="144.9522245" y="-37.8088654" /><node id="4169720251" x="145.0312496" y="-37.8066203" /><node id="3215106494" x="144.9531472" y="-37.8082738" /><node id="3054477759" x="144.9888635" y="-37.8076036" /><node id="3215106497" x="144.9524056" y="-37.8077142" /><node id="4169720258" x="145.0278717" y="-37.807236" /><node id="4169720259" x="145.0304745" y="-37.8069193" /><node id="309969348" x="145.0341482" y="-37.8072436" /><node id="3543024078" x="144.9561923" y="-37.8117306" /><node id="1928298965" x="145.0742633" y="-37.8066668" /><node id="21643741" x="145.043447" y="-37.8022287" /><node id="4169720287" x="145.0306202" y="-37.8068628" /><node id="4169720288" x="145.0306213" y="-37.80688" /><node id="3359105505" x="144.8819148" y="-37.8201994" /><node id="875512290" x="145.0670854" y="-37.8049348" /><node id="875512291" x="145.0675843" y="-37.8050723" /><node id="3933094374" x="144.9659473" y="-37.8068489" /><node id="4949987409" x="144.8945002" y="-37.8160177" /><node id="26034668" x="144.9720689" y="-37.8093347" /><node id="26034669" x="144.9671114" y="-37.8108078" /><node id="26034670" x="144.9695403" y="-37.8100861" /><node id="320494333" x="144.8725217" y="-37.8115696" /><node id="250003539" x="144.8947191" y="-37.8103262" /><node id="21643772" x="145.0381593" y="-37.8077073" /><node id="21643779" x="145.0567004" y="-37.8000704" /><node id="309076484" x="144.8954264" y="-37.80602" /><node id="2481930758" x="145.0078447" y="-37.8139635" /><node id="309076488" x="144.8946865" y="-37.8070398" /><node id="283334391" x="144.9511953" y="-37.8002758" /><node id="309076493" x="144.8948981" y="-37.8059535" /><node id="1093410301" x="145.0036974" y="-37.8066194" /><node id="583067740" x="144.9196245" y="-37.8076322" /><node id="21643793" x="145.0694502" y="-37.8016985" /><node id="4060979731" x="145.0621792" y="-37.8007477" /><node id="4060979732" x="145.062647" y="-37.8008064" /><node id="2311300526" x="144.8843205" y="-37.8023635" /><node id="2469585431" x="144.9871887" y="-37.8001569" /><node id="21643803" x="145.0625191" y="-37.8007896" /><node id="1982439965" x="145.0059751" y="-37.8150851" /><node id="2401378846" x="144.9209406" y="-37.8020803" /><node id="2401378847" x="144.92813" y="-37.8028637" /><node id="21643809" x="145.0617198" y="-37.8049948" /><node id="233555377" x="144.9815607" y="-37.80771" /><node id="1982439976" x="145.0060671" y="-37.8142655" /><node id="1686695072" x="144.9439551" y="-37.8006968" /><node id="518304261" x="145.0303653" y="-37.8152354" /><node id="313139758" x="145.072345" y="-37.8081966" /><node id="1982439983" x="145.0060811" y="-37.8142446" /><node id="1982439986" x="145.0059232" y="-37.8151009" /><node id="21643827" x="145.0661138" y="-37.8012588" /><node id="21643829" x="145.0289569" y="-37.8061341" /><node id="1982439994" x="145.0062345" y="-37.8142944" /><node id="1982439995" x="145.0059474" y="-37.8150894" /><node id="1982440001" x="145.0061393" y="-37.8143539" /><node id="583189061" x="144.9057953" y="-37.805821" /><node id="1982440008" x="145.0062661" y="-37.8137898" /><node id="1982440009" x="145.0061672" y="-37.8142199" /><node id="1982440010" x="145.006183" y="-37.8143488" /><node id="4034618807" x="145.0390942" y="-37.8149589" /><node id="313139789" x="145.0710986" y="-37.8080469" /><node id="1982440014" x="145.0062259" y="-37.814317" /><node id="1982440015" x="145.0061309" y="-37.8142199" /><node id="1982440016" x="145.006208" y="-37.8143359" /><node id="1982440021" x="145.0061032" y="-37.8142288" /><node id="1982440022" x="145.0059054" y="-37.8151183" /><node id="295874660" x="144.9091491" y="-37.8067516" /><node id="313139805" x="145.0698174" y="-37.8078916" /><node id="1533600351" x="145.0179092" y="-37.8109476" /><node id="2247672417" x="145.0460713" y="-37.8012851" /><node id="313139810" x="145.0691357" y="-37.8113727" /><node id="5290706363" x="144.9766673" y="-37.8083709" /><node id="2247672420" x="145.0464615" y="-37.8011364" /><node id="1533600358" x="145.0191912" y="-37.811641" /><node id="313139816" x="145.0685612" y="-37.8077301" /><node id="5290706364" x="144.9766257" y="-37.8082574" /><node id="1585403271" x="144.8913446" y="-37.8030239" /><node id="313139819" x="145.0678804" y="-37.8112223" /><node id="4683319517" x="144.8997404" y="-37.8131056" /><node id="373645935" x="144.9289451" y="-37.8088511" /><node id="650285160" x="144.9749776" y="-37.8136323" /><node id="1888086803" x="144.9623784" y="-37.8002432" /><node id="4428399220" x="144.8795558" y="-37.8199646" /><node id="767668329" x="144.9689935" y="-37.8071864" /><node id="313139836" x="145.0667211" y="-37.8075081" /><node id="777912959" x="144.9563" y="-37.800589" /><node id="245537567" x="144.9658398" y="-37.8104593" /><node id="2296771813" x="145.033707" y="-37.8094736" /><node id="777912966" x="144.9564046" y="-37.8006622" /><node id="777912969" x="144.9565025" y="-37.8007215" /><node id="313441047" x="145.0743254" y="-37.8065568" /><node id="777912972" x="144.9565964" y="-37.8007628" /><node id="313139853" x="145.0663628" y="-37.8093922" /><node id="777912975" x="144.9567225" y="-37.800802" /><node id="313139857" x="145.0653425" y="-37.8109184" /><node id="711369366" x="144.9591066" y="-37.8063468" /><node id="373645976" x="144.9291692" y="-37.8088654" /><node id="313139865" x="145.0656323" y="-37.809378" /><node id="313139868" x="145.0682075" y="-37.8095528" /><node id="1928315552" x="145.0714894" y="-37.8080701" /><node id="176693360" x="144.9614497" y="-37.8103372" /><node id="1928315555" x="145.0715632" y="-37.8080411" /><node id="1928315558" x="145.0715324" y="-37.8080425" /><node id="309969575" x="145.0345106" y="-37.8054448" /><node id="245537564" x="144.9655319" y="-37.8102024" /><node id="309346989" x="144.9998357" y="-37.8149275" /><node id="2021108589" x="144.9581022" y="-37.8093788" /><node id="1985551133" x="144.965933" y="-37.8069298" /><node id="583189170" x="144.9055173" y="-37.8059975" /><node id="3933086387" x="144.9629976" y="-37.8065226" /><node id="3933086388" x="144.9642169" y="-37.8067375" /><node id="1928315573" x="145.0715068" y="-37.8080526" /><node id="541122859" x="145.0106091" y="-37.8022893" /><node id="2207663859" x="144.9457903" y="-37.8006639" /><node id="775946936" x="144.958323" y="-37.8041525" /><node id="3933086393" x="144.9626971" y="-37.8065605" /><node id="775946938" x="144.9587151" y="-37.8041927" /><node id="1928315579" x="145.0716181" y="-37.8080716" /><node id="301548220" x="144.9852247" y="-37.8065557" /><node id="301548221" x="144.9860905" y="-37.8065954" /><node id="301548222" x="144.9860054" y="-37.8071034" /><node id="301548223" x="144.9843136" y="-37.8065163" /><node id="313139905" x="145.0670874" y="-37.8094175" /><node id="1928315586" x="145.0714809" y="-37.808091" /><node id="313139907" x="145.0661593" y="-37.8094416" /><node id="1928315589" x="145.0716037" y="-37.8080577" /><node id="313139910" x="145.0667611" y="-37.8110883" /><node id="320488135" x="144.8775485" y="-37.8191702" /><node id="1928315592" x="145.0716264" y="-37.8080889" /><node id="313139919" x="145.0611785" y="-37.8078117" /><node id="3146808099" x="144.9822571" y="-37.8101959" /><node id="3359255437" x="144.8842066" y="-37.8044679" /><node id="3161948885" x="144.9574536" y="-37.8092936" /><node id="3161948886" x="144.9578187" y="-37.8095273" /><node id="202522745" x="144.918175" y="-37.7996019" /><node id="3146808100" x="144.9807452" y="-37.8100332" /><node id="3161948897" x="144.9556249" y="-37.8083581" /><node id="33366754" x="144.9360412" y="-37.8099179" /><node id="33366756" x="144.9362726" y="-37.8092658" /><node id="33366757" x="144.9359428" y="-37.8085688" /><node id="33366758" x="144.9361355" y="-37.8079036" /><node id="313139943" x="145.0653006" y="-37.8082966" /><node id="313139944" x="145.0654568" y="-37.8080066" /><node id="3895976681" x="144.9251147" y="-37.8086458" /><node id="313139946" x="145.0659671" y="-37.8074228" /><node id="373646060" x="144.9316054" y="-37.8090742" /><node id="4544561901" x="144.9729459" y="-37.8113061" /><node id="4544561902" x="144.9730165" y="-37.8112864" /><node id="4544561903" x="144.9730519" y="-37.8112768" /><node id="313139953" x="145.0641156" y="-37.8107715" /><node id="723976949" x="145.0088923" y="-37.8113217" /><node id="4746494710" x="144.8973291" y="-37.8145092" /><node id="30221048" x="145.0159673" y="-37.8122155" /><node id="123338879" x="144.9273181" y="-37.7996112" /><node id="778814205" x="144.9556883" y="-37.7995307" /><node id="628761345" x="144.9790533" y="-37.8083441" /><node id="123338882" x="144.9260993" y="-37.7994552" /><node id="777826283" x="144.95744" y="-37.8038835" /><node id="3783295108" x="144.9292309" y="-37.798107" /><node id="650275631" x="144.9806089" y="-37.8135539" /><node id="1277946749" x="144.8920888" y="-37.7988233" /><node id="320848672" x="144.8789865" y="-37.8040604" /><node id="3494863649" x="145.0685451" y="-37.8113042" /><node id="3494863650" x="145.0647971" y="-37.8108531" /><node id="3359255440" x="144.8830924" y="-37.8042334" /><node id="3222652697" x="144.9297269" y="-37.8030387" /><node id="320490290" x="144.867831" y="-37.8147675" /><node id="321119022" x="144.8864745" y="-37.8131558" /><node id="30287325" x="144.9674874" y="-37.8071033" /><node id="3222703076" x="144.9432732" y="-37.8016566" /><node id="703554589" x="144.9565147" y="-37.8091964" /><node id="1492410189" x="144.9636882" y="-37.8027273" /><node id="608962176" x="145.0091497" y="-37.8031629" /><node id="4273062718" x="144.9147668" y="-37.8014673" /><node id="746341185" x="144.9962934" y="-37.8075944" /><node id="320491659" x="144.8792023" y="-37.8123333" /><node id="33366852" x="144.93623" y="-37.806622" /><node id="544367429" x="145.0096341" y="-37.8024781" /><node id="544367430" x="145.0095198" y="-37.8023772" /><node id="33366855" x="144.9358227" y="-37.8087315" /><node id="33366856" x="144.9362209" y="-37.8092123" /><node id="3862791979" x="144.9832675" y="-37.8116974" /><node id="2142179147" x="144.9364328" y="-37.799392" /><node id="313140045" x="145.0644391" y="-37.8053189" /><node id="777804600" x="144.955726" y="-37.8032922" /><node id="3071689559" x="145.0351093" y="-37.8090396" /><node id="767693506" x="144.9736861" y="-37.8045539" /><node id="2797986650" x="144.973627" y="-37.8053518" /><node id="2797986651" x="144.9735789" y="-37.8053576" /><node id="2797986652" x="144.9736687" y="-37.8053481" /><node id="4696480570" x="144.9944009" y="-37.7999791" /><node id="4696480571" x="144.9942137" y="-37.7999606" /><node id="250004329" x="144.8978444" y="-37.8106872" /><node id="777825195" x="144.9581406" y="-37.8040517" /><node id="250004334" x="144.8984717" y="-37.8061559" /><node id="250004335" x="144.8982489" y="-37.8058549" /><node id="130040689" x="144.932203" y="-37.8036999" /><node id="2664366964" x="144.9578665" y="-37.7976743" /><node id="2664366965" x="144.9577479" y="-37.7976621" /><node id="2664366966" x="144.9576305" y="-37.7976533" /><node id="4681524088" x="144.8898608" y="-37.8164859" /><node id="127639607" x="144.9455747" y="-37.8110663" /><node id="2383215099" x="144.9580148" y="-37.8063542" /><node id="2664366971" x="144.9578152" y="-37.798093" /><node id="387266370" x="144.9530923" y="-37.8102911" /><node id="2664366973" x="144.9579338" y="-37.7981212" /><node id="2664366974" x="144.958046" y="-37.79813" /><node id="777804608" x="144.9561337" y="-37.8036069" /><node id="4309902215" x="144.9800876" y="-37.8024368" /><node id="313140107" x="145.0657844" y="-37.8054867" /><node id="313140108" x="145.0661994" y="-37.8033223" /><node id="777804610" x="144.956178" y="-37.8036175" /><node id="30948163" x="145.0081087" y="-37.8135416" /><node id="320491673" x="144.8797383" y="-37.8158055" /><node id="571835288" x="144.87615" y="-37.8160107" /><node id="571835289" x="144.8759355" y="-37.8157977" /><node id="571835290" x="144.8757933" y="-37.8157225" /><node id="571835291" x="144.8754406" y="-37.8154894" /><node id="571835292" x="144.8752528" y="-37.8154163" /><node id="571835293" x="144.8748331" y="-37.8152923" /><node id="571835294" x="144.8745756" y="-37.8151006" /><node id="571835295" x="144.8739761" y="-37.814983" /><node id="571835296" x="144.8734866" y="-37.8149268" /><node id="571835297" x="144.873209" y="-37.8147499" /><node id="571835298" x="144.8729139" y="-37.8146238" /><node id="571835299" x="144.872686" y="-37.8144236" /><node id="571835300" x="144.8725438" y="-37.8142106" /><node id="663471013" x="144.9481401" y="-37.8115451" /><node id="571835302" x="144.8724003" y="-37.8138451" /><node id="273115435" x="144.8888503" y="-37.8037997" /><node id="55861404" x="144.9829932" y="-37.8063565" /><node id="2291073973" x="144.9638001" y="-37.8096561" /><node id="2291073976" x="144.961391" y="-37.8102099" /><node id="2291073977" x="144.9612489" y="-37.8102507" /><node id="2291073980" x="144.9607978" y="-37.81038" /><node id="224762698" x="144.9963551" y="-37.8076028" /><node id="309969854" x="145.0359015" y="-37.8049434" /><node id="2291073983" x="144.959837" y="-37.8106585" /><node id="2291073984" x="144.9589795" y="-37.8109096" /><node id="571835329" x="144.8725314" y="-37.813763" /><node id="4283908179" x="145.0086784" y="-37.8113336" /><node id="774546372" x="144.9593752" y="-37.8061975" /><node id="560997317" x="144.9359473" y="-37.8099116" /><node id="774546374" x="144.959634" y="-37.8062264" /><node id="2291073991" x="144.9564689" y="-37.8116451" /><node id="2291073992" x="144.9563065" y="-37.8116918" /><node id="2291073993" x="144.9565238" y="-37.8117643" /><node id="400753610" x="144.9369169" y="-37.8095207" /><node id="224750459" x="144.9818136" y="-37.8062334" /><node id="2291073998" x="144.9539886" y="-37.8123602" /><node id="571835347" x="144.8770032" y="-37.816207" /><node id="571835351" x="144.8730937" y="-37.8137942" /><node id="571835352" x="144.8734571" y="-37.8138621" /><node id="571835353" x="144.8736583" y="-37.8139076" /><node id="571835354" x="144.8737749" y="-37.8139648" /><node id="571835355" x="144.874137" y="-37.8142625" /><node id="571835356" x="144.8743731" y="-37.8143992" /><node id="4169720797" x="145.0220742" y="-37.8129571" /><node id="571835358" x="144.8752046" y="-37.8147213" /><node id="571835359" x="144.8756511" y="-37.8148516" /><node id="571835360" x="144.8763753" y="-37.815002" /><node id="4169720801" x="145.02349" y="-37.813129" /><node id="571835362" x="144.8765135" y="-37.815037" /><node id="3216954875" x="144.9862065" y="-37.8059231" /><node id="571835364" x="144.8768555" y="-37.8152542" /><node id="571835365" x="144.8771143" y="-37.8154619" /><node id="320480232" x="144.8789476" y="-37.8198987" /><node id="2209383402" x="144.9578254" y="-37.7970321" /><node id="1522566124" x="145.0283619" y="-37.80538" /><node id="320488433" x="144.8695428" y="-37.8116257" /><node id="320488434" x="144.8695653" y="-37.8114583" /><node id="41675603" x="144.9385631" y="-37.8106836" /><node id="2123710633" x="145.0547653" y="-37.8038246" /><node id="250291195" x="144.8921068" y="-37.8168201" /><node id="250291196" x="144.8909227" y="-37.8166867" /><node id="1404216317" x="144.9887562" y="-37.8011507" /><node id="2209383426" x="144.9578011" y="-37.7972285" /><node id="1404216323" x="144.9892818" y="-37.8011886" /><node id="320490326" x="144.8706339" y="-37.8122727" /><node id="3285623814" x="144.9317326" y="-37.8090858" /><node id="233314893" x="144.975344" y="-37.8042731" /><node id="4765991949" x="144.8942458" y="-37.8168956" /><node id="4765991950" x="144.8942608" y="-37.816886" /><node id="1522566159" x="145.025819" y="-37.8050905" /><node id="547587095" x="144.9902428" y="-37.8135038" /><node id="1367589913" x="144.9738512" y="-37.8041269" /><node id="2207661051" x="144.9460289" y="-37.7997331" /><node id="1367589915" x="144.973728" y="-37.8041119" /><node id="30942236" x="144.9040879" y="-37.8002394" /><node id="723970906" x="145.005025" y="-37.8064473" /><node id="3363087390" x="144.9040308" y="-37.8050226" /><node id="313140255" x="145.0687788" y="-37.8045044" /><node id="1522566177" x="145.0275461" y="-37.8072177" /><node id="1522566181" x="145.0286527" y="-37.8076585" /><node id="2123710641" x="145.0546191" y="-37.8038519" /><node id="30942248" x="144.9387068" y="-37.8057473" /><node id="30942249" x="144.9390756" y="-37.8058798" /><node id="777831467" x="144.9580896" y="-37.8039508" /><node id="30942252" x="144.9392258" y="-37.805919" /><node id="1522566189" x="145.030128" y="-37.8064868" /><node id="777831472" x="144.9581829" y="-37.8041341" /><node id="313156658" x="145.0646301" y="-37.801061" /><node id="244244659" x="144.968653" y="-37.8079171" /><node id="30942260" x="144.9478849" y="-37.8078249" /><node id="30942261" x="144.9485629" y="-37.8084721" /><node id="30942262" x="144.9492653" y="-37.8092649" /><node id="35726391" x="144.9316707" y="-37.8094204" /><node id="30942265" x="144.9503794" y="-37.8110569" /><node id="2266563642" x="144.954089" y="-37.8087118" /><node id="2266563643" x="144.9554765" y="-37.8081826" /><node id="35726397" x="144.9250892" y="-37.8087695" /><node id="35726399" x="144.9123512" y="-37.807465" /><node id="35726400" x="144.91036" y="-37.8071328" /><node id="2266563649" 