<routes><vType accel="1.1" decel="7.9" id="Car0" length="17.2" maxSpeed="112" sigma="0.0" /><vType accel="1.8" decel="4.0" id="Car1" length="7.4" maxSpeed="81" sigma="0.0" /><vType accel="0.5" decel="7.2" id="Car2" length="18.1" maxSpeed="83" sigma="0.0" /><vType accel="2.3" decel="5.1" id="Car3" length="21.7" maxSpeed="60" sigma="0.0" /><vType accel="2.4" decel="7.3" id="Car4" length="15.9" maxSpeed="78" sigma="0.0" /><vType accel="1.9" decel="3.3" id="Car5" length="5.2" maxSpeed="81" sigma="0.0" /><vType accel="2.3" decel="4.1" id="Car6" length="18.1" maxSpeed="79" sigma="0.0" /><route edges="1928298965_313441047 313441047_313440696 313440696_313254247 313254247_313254248 313254248_313254135 313254135_313254237 313254237_313254107 313254107_313254089 313254089_313140253 313140253_313140004 313140004_313140309 313140309_313140381 313140381_313140108 313140108_670001388 670001388_313140003 313140003_4889662608 4889662608_313248475 313248475_313248462 313248462_21643809 21643809_313248453 313248453_462859358 462859358_462868395 462868395_311901574 311901574_310001311 310001311_3496672103 3496672103_311902363 311902363_310001304 310001304_309977100 309977100_2123710638 2123710638_2123710633 2123710633_370482123 370482123_2123710644 2123710644_370482115 370482115_311902564 311902564_309971281 309971281_309977202 309977202_309975324 309975324_309977265 309977265_1657066726 1657066726_309975092 309975092_309975064 309975064_1657066778 1657066778_5300049085 5300049085_5300049098 5300049098_5300049099 5300049099_5300049100 5300049100_5300049101 5300049101_5300049083 5300049083_5300049087 5300049087_5300049089 5300049089_5300049084 5300049084_5300049090 5300049090_5300049091 5300049091_309971280 309971280_3996716073 3996716073_309972963 309972963_309972628 309972628_2938993273 2938993273_309972524 309972524_309972464 309972464_309972099 309972099_309971848 309971848_309971064 309971064_2245788941 2245788941_309971000 309971000_21643772 21643772_4000710669 4000710669_850722885 850722885_309970344 309970344_304701852 304701852_2080740194 2080740194_4802879112 4802879112_304701810 304701810_3071691488 3071691488_309969348 309969348_309969259 309969259_304701495 304701495_304701503 304701503_3224362684 3224362684_1487228141 1487228141_1487228084 1487228084_1487228003 1487228003_1487228036 1487228036_1487228148 1487228148_1487228031 1487228031_4169720288 4169720288_1487227988 1487227988_29936553 29936553_4169720259 4169720259_309978787 309978787_1522977019 1522977019_1522839079 1522839079_1522566268 1522566268_1522834359 1522834359_1522566317 1522566317_1522834449 1522834449_1522834345 1522834345_1522834377 1522834377_1522834355 1522834355_31477188 31477188_31477187 31477187_31477186 31477186_2940375840 2940375840_370477432 370477432_214122372 214122372_370477489 370477489_31477185 31477185_31477184 31477184_2940375839 2940375839_370477495 370477495_214122180 214122180_214092481 214092481_541122878 541122878_541122879 541122879_541122881 541122881_541122882 541122882_541122883 541122883_541122884 541122884_541122885 541122885_541122845 541122845_541122905 541122905_906234098 906234098_906234090 906234090_906234099 906234099_906234081 906234081_906234088 906234088_906234083 906234083_906234091 906234091_906234096 906234096_906234093 906234093_128893036 128893036_31477178 31477178_31477177 31477177_31477176 31477176_4698484056 4698484056_561538868 561538868_31477175 31477175_305909758 305909758_31477174 31477174_906234095 906234095_3067843936 3067843936_827113739 827113739_128874949 128874949_4698523258 4698523258_128874985 128874985_305913666 305913666_151451933 151451933_305913661 305913661_305913663 305913663_128882514 128882514_1519470746 1519470746_31477172 31477172_1519470912 1519470912_283059741 283059741_129288570 129288570_2006021064 2006021064_5034416925 5034416925_1519470958 1519470958_4696480570 4696480570_319860962 319860962_4696480571 4696480571_1519471032 1519471032_1519471015 1519471015_1521014718 1521014718_31477171 31477171_38779052 38779052_248969197 248969197_1519470760 1519470760_227324606 227324606_356474935 356474935_227324666 227324666_356474868 356474868_356474751 356474751_227324345 227324345_356474390 356474390_227324534 227324534_356474260 356474260_227324467 227324467_384013628 384013628_1404216323 1404216323_1404216317 1404216317_1596911747 1596911747_384012724 384012724_227324361 227324361_332127589 332127589_356478170 356478170_227315809 227315809_301549282 301549282_222976606 222976606_222975227 222975227_301549266 301549266_2029614911 2029614911_2170946980 2170946980_2213981040 2213981040_301549275 301549275_333901615 333901615_233262526 233262526_2213981051 2213981051_2789606893 2789606893_2789606895 2789606895_233262622 233262622_440506788 440506788_440506785 440506785_233262607 233262607_368376892 368376892_233262588 233262588_338577629 338577629_224750279 224750279_224750410 224750410_364846732 364846732_2133323870 2133323870_871135414 871135414_361797592 361797592_224750210 224750210_4297530216 4297530216_4297530211 4297530211_30287464 30287464_4297530210 4297530210_652430413 652430413_233275077 233275077_4297530205 4297530205_266734181 266734181_248838949 248838949_477078642 477078642_2810324702 2810324702_2797967113 2797967113_477078776 477078776_233315285 233315285_767658130 767658130_767658129 767658129_767658128 767658128_767658367 767658367_767584931 767584931_767659043 767659043_767584894 767584894_767584876 767584876_2384091386 2384091386_4000075642 4000075642_767586827 767586827_767586829 767586829_767586831 767586831_2324975789 2324975789_1713460615 1713460615_3419354755 3419354755_3419354764 3419354764_277089929 277089929_26034668 26034668_3419354750 3419354750_595858242 595858242_3191033050 3191033050_589402311 589402311_26034670 26034670_3367904413 3367904413_247018098 247018098_247008046 247008046_247008062 247008062_247008053 247008053_247012072 247012072_247010162 247010162_1985557919 1985557919_1985557923 1985557923_26034669 26034669_3367904418 3367904418_4544002874 4544002874_245537608 245537608_4544002875 4544002875_245537592 245537592_1838361789 1838361789_2187770709 2187770709_2187770700 2187770700_2187973144 2187973144_2187973146 2187973146_2187973145 2187973145_2187770704 2187770704_2187770698 2187770698_1903722314 1903722314_2187770695 2187770695_1558806066 1558806066_1558806077 1558806077_176703213 176703213_176693430 176693430_176699680 176699680_714724462 714724462_593475869 593475869_593475866 593475866_176693380 176693380_176693360 176693360_2190483583 2190483583_4326586190 4326586190_4326586189 4326586189_2190483587 2190483587_2291073976 2291073976_4326586185 4326586185_4326586186 4326586186_2291073977 2291073977_2291073980 2291073980_2291073983 2291073983_2291073984 2291073984_2291073986 2291073986_2291073989 2291073989_2291073990 2291073990_2291073991 2291073991_2291073992 2291073992_2291073998 2291073998_2291073999 2291073999_2291074001 2291074001_2291074005 2291074005_5063584565 5063584565_1492149384 1492149384_1492145774 1492145774_4996764092 4996764092_332544861 332544861_332544860 332544860_30942264 30942264_3215106462 3215106462_332544859 332544859_332544858 332544858_332544866 332544866_3394730431 3394730431_3394730433 3394730433_3394730432 3394730432_1492131968 1492131968_1492131937 1492131937_296027713 296027713_1492131952 1492131952_296027706 296027706_305106971 305106971_296027680 296027680_1492131945 1492131945_1492131957 1492131957_1492131942 1492131942_1492131965 1492131965_1492131951 1492131951_1492131944 1492131944_1492131946 1492131946_1492131934 1492131934_296027719 296027719_296027698 296027698_26680093 26680093_1132070489 1132070489_1132070467 1132070467_26680091 26680091_92130447 92130447_3313036363 3313036363_26680088 26680088_26680087 26680087_1132070461 1132070461_26680084 26680084_1132070452 1132070452_571460260 571460260_306905310 306905310_41675607 41675607_129554697 129554697_634775152 634775152_129554693 129554693_634775151 634775151_41675603 41675603_560997640 560997640_41675601 41675601_560997636 560997636_129554690 129554690_560997615 560997615_129554689 129554689_709706163 709706163_709706159 709706159_709706157 709706157_129554688 129554688_560997614 560997614_310727922 310727922_33366754 33366754_560997317 560997317_560997597 560997597_41667991 41667991_1224872741 1224872741_304710871 304710871_304710870 304710870_3285633579 3285633579_5320613467 5320613467_5322615232 5322615232_76459258 76459258_4415760632 4415760632_3285633576 3285633576_2172718107 2172718107_76459296 76459296_3285623814 3285623814_373646060 373646060_373645976 373645976_373645935 373645935_3285622633 3285622633_373643824 373643824_2613010004 2613010004_2613010002 2613010002_373644846 373644846_3285622632 3285622632_583067729 583067729_3285622626 3285622626_75086429 75086429_202673222 202673222_202676493 202676493_1060265093 1060265093_4067315447 4067315447_75086428 75086428_2613010000 2613010000_2613009998 2613009998_4793613049 4793613049_75086426 75086426_295874707 295874707_75086425 75086425_3285622635 3285622635_3285622634 3285622634_202578382 202578382_202578380 202578380_295874836 295874836_3176128935 3176128935_202567088 202567088_122730503 122730503_5417879355 5417879355_4740947182 4740947182_4740947179 4740947179_5495352698 5495352698_4740947181 4740947181_3221150099 3221150099_583189061 583189061_583189179 583189179_583189176 583189176_5417879350 5417879350_583189170 583189170_5495352686 5495352686_583189167 583189167_2713476629 2713476629_583192758 583192758_583189165 583189165_583188386 583188386_4969348267 4969348267_122728027 122728027_4969348348 4969348348_4969348349 4969348349_4969348320 4969348320_4969348221 4969348221_4969348269 4969348269_4969348262 4969348262_4969348300 4969348300_827129293 827129293_122727218 122727218_2435998814 2435998814_4790887538 4790887538_4790886670 4790886670_2435998810 2435998810_250001489 250001489_250042828 250042828_250001982 250001982_4785576670 4785576670_250004328 250004328_663515678 663515678_348736071 348736071_250005932 250005932_250005949 250005949_250006064 250006064_250291379 250291379_4789332721 4789332721_4789332715 4789332715_616526900 616526900_616526899 616526899_616526898 616526898_4785789440 4785789440_4785789439 4785789439_4864226303 4864226303_4785789437 4785789437_4785789438 4785789438_321118514 321118514_321118513 321118513_4789832907 4789832907_4789832908 4789832908_4789832909 4789832909_321118687 321118687_321118688 321118688_321118689 321118689_321118690 321118690_321118623 321118623_2515068653 2515068653_2515068650 2515068650_2515068645 2515068645_2515068639 2515068639_321119638 321119638_663516793 663516793_663516792 663516792_663516770 663516770_321119478 321119478_321120768 321120768_663516795 663516795_321120871 321120871_3973071991 3973071991_321120872 321120872_320086273 320086273_3973071989 3973071989_616528159 616528159_320086272 320086272_616528059 616528059_320086271 320086271_616528026 616528026_320086270 320086270_616528247 616528247_320086269 320086269_616528307 616528307_320086268 320086268_616528292 616528292_616528052 616528052_616528293 616528293_320491327 320491327_320086226 320086226_320491275 320491275_320086235 320086235_320491221 320491221_250291397 250291397_2515068893 2515068893_320490834 320490834_320494333 320494333_320494404 320494404_250291403 250291403_2100795443 2100795443_2100795447 2100795447_2100795444 2100795444_250291406 250291406_2100795449 2100795449_253546237 253546237_36022334 36022334_36022333 36022333_3359255438 3359255438_3855646545 3855646545_250291504 250291504_36022332 36022332_3359255471 3359255471_36022331 36022331_2612216109 2612216109_2612216108 2612216108_663499466 663499466_2612216107 2612216107_2612216111 2612216111_370708113 370708113_370708114 370708114_370708264 370708264_370708343 370708343_370708381 370708381_320852621 320852621_1833869065 1833869065_2612216102 2612216102_370708433 " id="route0" /><route edges="1928298965_313441110 313441110_313440691 313440691_313441737 313441737_313254240 313254240_313139758 313139758_1928315581 1928315581_1928315592 1928315592_1928315579 1928315579_1928315589 1928315589_1928315553 1928315553_1928315555 1928315555_1928315558 1928315558_1928315573 1928315573_1928315552 1928315552_1928315586 1928315586_313139789 313139789_313254109 313254109_313139805 313139805_313254077 313254077_313139816 313139816_313140298 313140298_313139836 313139836_673083815 673083815_313139946 313139946_313139945 313139945_1928284033 1928284033_313139944 313139944_1928284050 1928284050_313139943 313139943_2425453618 2425453618_2425453607 2425453607_313139919 313139919_311901379 311901379_311901462 311901462_311901363 311901363_319628837 319628837_2245788930 2245788930_304705278 304705278_304705227 304705227_309975117 309975117_2815396513 2815396513_2245577418 2245577418_304705215 304705215_2815396505 2815396505_309975281 309975281_309975083 309975083_304704681 304704681_2245577415 2245577415_309975063 309975063_29960342 29960342_304704449 304704449_309972751 309972751_2245577416 2245577416_304704443 304704443_2938998243 2938998243_304704440 304704440_2080740191 2080740191_309972045 309972045_309972112 309972112_304704429 304704429_309971000 309971000_21643772 21643772_4000710669 4000710669_850722885 850722885_309970344 309970344_304701852 304701852_2080740194 2080740194_4802879112 4802879112_304701810 304701810_3071691488 3071691488_309969348 309969348_309969259 309969259_2245347109 2245347109_4034623519 4034623519_4034623520 4034623520_4034623521 4034623521_4790942635 4790942635_4790942634 4790942634_309979105 309979105_4169720285 4169720285_1487967728 1487967728_1487967726 1487967726_1487967725 1487967725_4034623523 4034623523_4034623524 4034623524_4034623525 4034623525_4034623526 4034623526_1522566225 1522566225_1522566189 1522566189_1522566380 1522566380_1522566247 1522566247_1522566154 1522566154_1522566120 1522566120_1522566282 1522566282_1522834348 1522834348_210772014 210772014_21643829 21643829_304708795 304708795_1522566240 1522566240_1522566124 1522566124_304709133 304709133_1522566327 1522566327_304709129 304709129_304709019 304709019_1522566159 1522566159_370474947 370474947_2940375807 2940375807_2940375832 2940375832_2940375831 2940375831_2940375830 2940375830_2940375829 2940375829_2940375806 2940375806_2940375828 2940375828_2940375827 2940375827_2940375805 2940375805_2940375803 2940375803_5314352327 5314352327_5314352326 5314352326_5314352325 5314352325_5314352324 5314352324_5314352323 5314352323_5314352322 5314352322_5314352321 5314352321_5314351820 5314351820_277366101 277366101_277366102 277366102_277366103 277366103_277366104 277366104_277366105 277366105_277366106 277366106_277366107 277366107_477305826 477305826_540557516 540557516_540557517 540557517_477304300 477304300_477304322 477304322_5406797144 5406797144_5406797145 5406797145_477304350 477304350_5406797146 5406797146_477304377 477304377_477304427 477304427_5406797147 5406797147_477304483 477304483_5406797148 5406797148_477304554 477304554_492939898 492939898_477304643 477304643_477304776 477304776_477304850 477304850_493876679 493876679_493876680 493876680_2621587160 2621587160_492939950 492939950_492939908 492939908_492939909 492939909_493873679 493873679_496572529 496572529_544361382 544361382_496572531 496572531_544361383 544361383_496572533 496572533_496572534 496572534_493873672 493873672_493873674 493873674_493873676 493873676_493873678 493873678_493873689 493873689_493873691 493873691_477305501 477305501_153690930 153690930_153690926 153690926_127715023 127715023_3110979280 3110979280_3110979279 3110979279_127714984 127714984_294542339 294542339_294542333 294542333_501544042 501544042_127715393 127715393_127715411 127715411_127715424 127715424_127715440 127715440_127715457 127715457_127715483 127715483_497402662 497402662_127715497 127715497_482761038 482761038_127715512 127715512_127715526 127715526_266075971 266075971_501078732 501078732_599267964 599267964_599267613 599267613_599267612 599267612_599267611 599267611_599267610 599267610_599267609 599267609_599267608 599267608_599267607 599267607_599267606 599267606_599267605 599267605_599267604 599267604_599267603 599267603_599267602 599267602_599267601 599267601_599267600 599267600_599267599 599267599_599267598 599267598_599267597 599267597_599267596 599267596_599267595 599267595_599267594 599267594_599267593 599267593_599267592 599267592_599267591 599267591_599267559 599267559_599267558 599267558_599267557 599267557_599267556 599267556_599267555 599267555_599267554 599267554_599267553 599267553_599267552 599267552_599267551 599267551_599267550 599267550_599267549 599267549_599267548 599267548_599267452 599267452_599267354 599267354_599267353 599267353_599267352 599267352_599267195 599267195_111328957 111328957_723797140 723797140_111328976 111328976_723799570 723799570_723799568 723799568_571770022 571770022_723799564 723799564_571770021 571770021_723799558 723799558_111328996 111328996_723799926 723799926_571784820 571784820_723802387 723802387_723802881 723802881_230362084 230362084_723803360 723803360_723803357 723803357_723803354 723803354_601307894 601307894_723803349 723803349_4674057364 4674057364_601307891 601307891_230362358 230362358_230362154 230362154_3816583490 3816583490_230362331 230362331_230362123 230362123_230362113 230362113_230362300 230362300_230362073 230362073_582462377 582462377_2337129977 2337129977_230382038 230382038_2337129952 2337129952_230407159 230407159_2080714677 2080714677_230397619 230397619_252345995 252345995_230406923 230406923_493103318 493103318_1519470776 1519470776_29827130 29827130_30220683 30220683_572826675 572826675_230502478 230502478_338505825 338505825_230502434 230502434_338506653 338506653_3929825291 3929825291_4307007293 4307007293_30220693 30220693_30220696 30220696_4529353975 4529353975_4529353974 4529353974_4529353973 4529353973_4529353972 4529353972_233264311 233264311_384006282 384006282_384006293 384006293_2336786594 2336786594_233264333 233264333_384006378 384006378_384006394 384006394_1982350358 1982350358_443312149 443312149_4320636977 4320636977_4320636976 4320636976_4320636975 4320636975_443312148 443312148_401506121 401506121_574311875 574311875_574311878 574311878_574311876 574311876_574311880 574311880_233262857 233262857_233262833 233262833_448077311 448077311_2204643303 2204643303_30287473 30287473_2204643311 2204643311_679722416 679722416_244548946 244548946_230782542 230782542_564470489 564470489_2199393931 2199393931_4294474593 4294474593_4294474592 4294474592_2200544462 2200544462_2199393938 2199393938_2199393943 2199393943_2199393945 2199393945_2199393955 2199393955_2199393953 2199393953_2347142385 2347142385_4000075633 4000075633_4000075634 4000075634_2199393934 2199393934_368094019 368094019_291966939 291966939_540056237 540056237_291966932 291966932_1367582250 1367582250_769188524 769188524_769188525 769188525_769188527 769188527_767749833 767749833_140980602 140980602_501027454 501027454_767748406 767748406_767752170 767752170_4061250646 4061250646_5096779235 5096779235_5096779234 5096779234_4061250656 4061250656_5096779236 5096779236_370243518 370243518_33238508 33238508_33238509 33238509_370243956 370243956_30287315 30287315_1985549819 1985549819_370230657 370230657_366082639 366082639_1725216267 1725216267_137181198 137181198_367849063 367849063_367849065 367849065_1492169279 1492169279_1492169318 1492169318_1492169261 1492169261_1492169336 1492169336_1492169348 1492169348_1492169335 1492169335_1492169360 1492169360_1492169293 1492169293_312719433 312719433_312719417 312719417_1725216215 1725216215_1881118510 1881118510_2185303481 2185303481_1888086822 1888086822_1888086817 1888086817_1888086800 1888086800_1888086810 1888086810_1888086795 1888086795_363400139 363400139_363399252 363399252_2975215355 2975215355_3420833596 3420833596_5406381120 5406381120_5406370715 5406370715_245507478 245507478_2361760694 2361760694_2361760755 2361760755_363396008 363396008_2361760729 2361760729_5021236290 5021236290_5021236289 5021236289_5021236288 5021236288_3812208865 3812208865_245507368 245507368_367098728 367098728_363383178 363383178_365484563 365484563_363383175 363383175_363378703 363378703_363375958 363375958_363375959 363375959_363379057 363379057_363374719 363374719_363374718 363374718_2975246300 2975246300_363373768 363373768_363374041 363374041_245807575 245807575_245507578 245507578_245807304 245807304_245807322 245807322_245807323 245807323_245807324 245807324_245807325 245807325_245493338 245493338_1292883550 1292883550_1292883548 1292883548_316174753 316174753_2209383602 2209383602_2384097336 2384097336_1292883549 1292883549_2384097335 2384097335_2209383458 2209383458_1292883553 1292883553_1292883552 1292883552_1292883554 1292883554_439234000 439234000_245866326 245866326_1954066462 1954066462_245866375 245866375_248372455 248372455_247118821 247118821_2905756452 2905756452_247118809 247118809_1886476531 1886476531_456873727 456873727_1954068470 1954068470_456873728 456873728_1954068462 1954068462_456873729 456873729_1954068466 1954068466_456873722 456873722_444778890 444778890_33240876 33240876_571387849 571387849_571389832 571389832_1912473340 1912473340_1912473339 1912473339_4029432579 4029432579_1912473338 1912473338_1912473327 1912473327_1280037243 1280037243_33240733 33240733_1912473317 1912473317_5091955828 5091955828_5091955829 5091955829_5091955830 5091955830_5091955831 5091955831_5091955832 5091955832_1888072538 1888072538_1888072525 1888072525_1545444001 1545444001_1280096284 1280096284_137126960 137126960_34765859 34765859_1280096273 1280096273_1292873439 1292873439_1280096213 1280096213_962956062 962956062_471750274 471750274_471750273 471750273_1912473308 1912473308_2105449020 2105449020_373070247 373070247_2105470583 2105470583_4460254035 4460254035_4460254034 4460254034_2105470559 2105470559_2105449021 2105449021_3873155060 3873155060_127627640 127627640_1316062834 1316062834_373069361 373069361_1316062877 1316062877_251084139 251084139_1316038621 1316038621_1133260588 1133260588_86662136 86662136_962313585 962313585_4889398639 4889398639_1315978746 1315978746_280918826 280918826_86674407 86674407_280920274 280920274_286452003 286452003_280920081 280920081_92256428 92256428_92257235 92257235_92257618 92257618_92257915 92257915_92258706 92258706_92258704 92258704_86710740 86710740_86691031 86691031_3162726480 3162726480_3162726476 3162726476_3162726478 3162726478_493879118 493879118_86691032 86691032_3162726472 3162726472_493879094 493879094_3162726481 3162726481_3162726474 3162726474_86691034 86691034_92242202 92242202_86688443 86688443_92242361 92242361_86688712 86688712_4003572166 4003572166_1096243313 1096243313_949544886 949544886_949544867 949544867_1096243297 1096243297_4003572167 4003572167_67804747 67804747_67804740 67804740_67762203 67762203_279249331 279249331_67762204 67762204_67804723 67804723_67804724 67804724_67804754 67804754_67804716 67804716_67804717 67804717_67804719 67804719_67804721 67804721_67804779 67804779_67684355 67684355_3235486781 3235486781_67696459 67696459_67695726 67695726_67695526 67695526_3887486014 3887486014_3887486015 3887486015_3887486005 3887486005_67625554 67625554_506143127 506143127_506143125 506143125_67662262 67662262_506140233 506140233_506140264 506140264_67656895 67656895_583181080 583181080_583182427 583182427_67644415 67644415_67644058 67644058_583182477 583182477_828185108 828185108_67617094 67617094_1713471333 1713471333_1354965851 1354965851_202522752 202522752_202522745 202522745_1112411407 1112411407_1112411379 1112411379_1112411390 1112411390_1112411445 1112411445_1112411450 1112411450_1112411427 1112411427_130044430 130044430_130043644 130043644_3790949326 3790949326_3790949327 3790949327_3790949328 3790949328_3790949329 3790949329_3790949330 3790949330_3790949331 3790949331_583197079 583197079_622959760 622959760_130042127 130042127_5536422989 5536422989_622959751 622959751_314471695 314471695_2089553092 2089553092_249995251 249995251_622991399 622991399_622991383 622991383_249996470 249996470_4787377405 4787377405_249995249 249995249_4443156862 4443156862_4787388649 4787388649_4787388648 4787388648_122732708 122732708_122727220 122727220_3480502762 3480502762_3363089103 3363089103_878558052 878558052_250002446 250002446_4861513666 4861513666_1980953408 1980953408_616537671 616537671_616537475 616537475_249996883 249996883_249996882 249996882_249997007 249997007_3769827298 3769827298_250001736 250001736_250001977 250001977_3363089039 3363089039_4826319023 4826319023_3221150102 3221150102_3221150103 3221150103_3221150104 3221150104_3221150105 3221150105_3221150106 3221150106_3221150107 3221150107_3221150108 3221150108_3221150109 3221150109_3221150110 3221150110_1585522895 1585522895_5010902192 5010902192_1387990236 1387990236_273117200 273117200_273117210 273117210_273117208 273117208_273117206 273117206_273117204 273117204_273117202 273117202_623012185 623012185_623012181 623012181_623012177 623012177_75136343 75136343_623012729 623012729_75136345 75136345_1585403348 1585403348_1585403334 1585403334_1585403279 1585403279_1585522852 1585522852_1585403230 1585403230_1585403232 1585403232_1585403308 1585403308_623012734 623012734_1585403271 1585403271_273107857 273107857_273107921 273107921_75136351 75136351_2311300521 2311300521_75136354 75136354_322529029 322529029_3221168427 3221168427_2311300529 2311300529_75136358 75136358_2311300578 2311300578_75136359 75136359_2311300527 2311300527_2311300545 2311300545_75136360 75136360_2311300555 2311300555_3427731616 3427731616_3427731615 3427731615_3427731620 3427731620_3427731621 3427731621_3427731619 3427731619_3427731617 3427731617_75136365 75136365_3221168432 3221168432_75136367 75136367_2813188483 2813188483_2813188487 2813188487_2311262882 2311262882_2311262931 2311262931_466950853 466950853_466950852 466950852_3513727331 3513727331_2311300561 2311300561_1833142700 1833142700_2311300547 2311300547_2311300538 2311300538_1833142694 1833142694_1833142687 1833142687_2268148329 2268148329_3359255433 3359255433_3359255435 3359255435_2268148328 2268148328_320846340 320846340_2268148332 2268148332_36022341 36022341_2268143517 2268143517_36022340 36022340_253549824 253549824_36022339 36022339_36022338 36022338_3855648395 3855648395_36022337 36022337_320846296 320846296_3855648786 3855648786_36022336 36022336_36022335 36022335_253546237 253546237_36022334 36022334_36022333 36022333_3359255438 3359255438_3855646545 3855646545_250291504 250291504_2100795462 2100795462_253546192 253546192_250291418 250291418_320852504 320852504_370708114 370708114_370708113 370708113_2612216111 2612216111_2612216106 2612216106_2299087307 2299087307_2299087308 2299087308_2299087306 2299087306_2612216105 2612216105_2299087310 2299087310_2299087311 2299087311_370708380 370708380_370708381 370708381_320852621 320852621_1833869065 1833869065_2612216102 2612216102_370708433 " id="route1" /><route edges="1928298965_313441110 313441110_313440691 313440691_313441737 313441737_313254240 313254240_313139758 313139758_1928315581 1928315581_1928315592 1928315592_1928315579 1928315579_1928315589 1928315589_1928315553 1928315553_1928315555 1928315555_1928315558 1928315558_1928315573 1928315573_1928315552 1928315552_1928315586 1928315586_313139789 313139789_313254109 313254109_313139805 313139805_313254077 313254077_313139816 313139816_313140298 313140298_313139836 313139836_313139853 313139853_313139907 313139907_313139865 313139865_313441842 313441842_313139995 313139995_4817054296 4817054296_2245992570 2245992570_313139953 313139953_2381887355 2381887355_462844528 462844528_304705564 304705564_462850492 462850492_304705458 304705458_462849962 462849962_4326585010 4326585010_4326585009 4326585009_29936554 29936554_4326585008 4326585008_4142788490 4142788490_311901127 311901127_29960343 29960343_2245577417 2245577417_304705278 304705278_304705227 304705227_2245788925 2245788925_304705261 304705261_304705287 304705287_304705239 304705239_304705226 304705226_304704836 304704836_3440804513 3440804513_304705111 304705111_304704775 304704775_304704626 304704626_304704678 304704678_304704624 304704624_304704448 304704448_1800095332 1800095332_1800095333 1800095333_304718042 304718042_30948256 30948256_304701321 304701321_304715532 304715532_304701167 304701167_304715731 304715731_304715899 304715899_304715898 304715898_598491774 598491774_598491773 598491773_304715896 304715896_304715895 304715895_304715876 304715876_936127108 936127108_936127107 936127107_598491783 598491783_304715907 304715907_304715905 304715905_304716663 304716663_304715900 304715900_304712991 304712991_518304506 518304506_518304505 518304505_518304503 518304503_518304701 518304701_577063537 577063537_304713186 304713186_518306206 518306206_304713184 304713184_350851792 350851792_350851093 350851093_304713181 304713181_304713671 304713671_518306137 518306137_518305746 518305746_304712993 304712993_5492264552 5492264552_5492264545 5492264545_2249920854 2249920854_518305850 518305850_2249920852 2249920852_313277809 313277809_313277810 313277810_313277803 313277803_2381255962 2381255962_30385414 30385414_214098780 214098780_30385415 30385415_30385416 30385416_1545417310 1545417310_2242878878 2242878878_214098865 214098865_2242878877 2242878877_214109194 214109194_1533600417 1533600417_1533600415 1533600415_214109185 214109185_214109083 214109083_214117676 214117676_1533600403 1533600403_214117848 214117848_214117823 214117823_214117799 214117799_1533481707 1533481707_1533481701 1533481701_4283908892 4283908892_214117760 214117760_30221048 30221048_277362814 277362814_4283908187 4283908187_2241696406 2241696406_277362811 277362811_1546958636 1546958636_1546958634 1546958634_2241696401 2241696401_2978801845 2978801845_2978801848 2978801848_2978801846 2978801846_2978801847 2978801847_277362808 277362808_723980903 723980903_277362807 277362807_277362806 277362806_723980902 723980902_3394892452 3394892452_277362804 277362804_723976949 723976949_4283908179 4283908179_2773627