<nodes><node id="767582212" x="144.9714275" y="-37.8075344" /><node id="5546311686" x="145.013087" y="-37.8043532" /><node id="1463656456" x="144.9994699" y="-37.8168054" /><node id="2239389706" x="144.9997664" y="-37.8154024" /><node id="309977100" x="145.0547873" y="-37.8037646" /><node id="4000710669" x="145.038027" y="-37.807692" /><node id="287629326" x="144.9515587" y="-37.8047996" /><node id="287629328" x="144.951795" y="-37.8036257" /><node id="30385496" x="144.9972205" y="-37.8164671" /><node id="4283908116" x="144.9767682" y="-37.8081037" /><node id="4283908117" x="144.9768225" y="-37.8081096" /><node id="309975324" x="145.0529118" y="-37.8055213" /><node id="287629316" x="144.9518701" y="-37.8032624" /><node id="4283908125" x="144.9786563" y="-37.8084748" /><node id="4283908127" x="144.97865" y="-37.8085098" /><node id="2207663837" x="144.9459832" y="-37.799728" /><node id="2245992484" x="145.0691388" y="-37.8113567" /><node id="962928677" x="144.9525916" y="-37.7975064" /><node id="321118249" x="144.8964381" y="-37.8078566" /><node id="1879269418" x="144.9638501" y="-37.8002944" /><node id="1480081451" x="144.9818786" y="-37.7988696" /><node id="309977132" x="145.0499762" y="-37.8032243" /><node id="210772014" x="145.0289511" y="-37.8065141" /><node id="472236187" x="144.9661252" y="-37.8019766" /><node id="304701495" x="145.0327138" y="-37.8070778" /><node id="320847931" x="144.8717516" y="-37.8073383" /><node id="566444092" x="144.9374063" y="-37.7952375" /><node id="304701503" x="145.031765" y="-37.8069681" /><node id="4283908165" x="145.0006647" y="-37.8105864" /><node id="4283908167" x="145.0006749" y="-37.8106389" /><node id="4283908169" x="145.0006777" y="-37.8106531" /><node id="4283908171" x="145.000582" y="-37.8109953" /><node id="30287591" x="144.9912345" y="-37.8048947" /><node id="4283908176" x="145.000531" y="-37.8111797" /><node id="4283908179" x="145.0086784" y="-37.8113336" /><node id="4283908181" x="145.0097679" y="-37.8114192" /><node id="4283908183" x="145.0097593" y="-37.8114484" /><node id="4288151642" x="145.0437864" y="-37.8083295" /><node id="4283908187" x="145.014663" y="-37.8120407" /><node id="1492131937" x="144.9469261" y="-37.8112471" /><node id="2245992551" x="145.0618463" y="-37.8104834" /><node id="128893036" x="145.0065284" y="-37.8014629" /><node id="1492131952" x="144.946345" y="-37.8114419" /><node id="309977202" x="145.053019" y="-37.805534" /><node id="409550966" x="144.9998605" y="-37.7995421" /><node id="287629431" x="144.9483399" y="-37.8043313" /><node id="287629433" x="144.9483613" y="-37.8041691" /><node id="2190483578" x="144.9599543" y="-37.8070898" /><node id="287629437" x="144.9483425" y="-37.8041564" /><node id="2190483582" x="144.9609332" y="-37.8092157" /><node id="2190483583" x="144.961445" y="-37.8103271" /><node id="1492131968" x="144.9471231" y="-37.8111783" /><node id="2190483585" x="144.960412" y="-37.8080765" /><node id="2190483587" x="144.9613957" y="-37.8102201" /><node id="287629445" x="144.9489936" y="-37.8051406" /><node id="321540412" x="144.8842598" y="-37.8204919" /><node id="306905226" x="144.9385832" y="-37.812284" /><node id="2190483595" x="144.9611666" y="-37.8097289" /><node id="2190483597" x="144.9618758" y="-37.8112627" /><node id="623027565" x="144.8997661" y="-37.8050745" /><node id="309977235" x="145.0534053" y="-37.8036267" /><node id="2245992601" x="145.0623209" y="-37.8105727" /><node id="176693402" x="144.9621293" y="-37.8111891" /><node id="311902363" x="145.0571107" y="-37.8040933" /><node id="55861404" x="144.9829932" y="-37.8063565" /><node id="472236189" x="144.9663317" y="-37.801998" /><node id="2123710627" x="145.0551369" y="-37.8018375" /><node id="60653733" x="144.9428102" y="-37.8127594" /><node id="2123710630" x="145.0545815" y="-37.803714" /><node id="92262691" x="144.9312588" y="-37.792801" /><node id="2123710635" x="145.0550055" y="-37.8017714" /><node id="2123710636" x="145.0551193" y="-37.8018086" /><node id="2123710638" x="145.054783" y="-37.8037962" /><node id="2123710639" x="145.0549317" y="-37.8018061" /><node id="2123710640" x="145.0546505" y="-37.8036811" /><node id="309977265" x="145.0518855" y="-37.8054051" /><node id="2123710642" x="145.0547753" y="-37.8037298" /><node id="2214002868" x="144.984657" y="-37.7968521" /><node id="176693430" x="144.9636534" y="-37.8107471" /><node id="2214002875" x="144.9845347" y="-37.7975621" /><node id="313254077" x="145.0692452" y="-37.8078167" /><node id="313254089" x="145.0700302" y="-37.8042422" /><node id="224738431" x="144.9889895" y="-37.8068758" /><node id="305106978" x="144.9418058" y="-37.806085" /><node id="320086223" x="144.8828195" y="-37.8072857" /><node id="4273053908" x="144.9369252" y="-37.8051254" /><node id="304718042" x="145.044866" y="-37.8156477" /><node id="313254107" x="145.0711596" y="-37.8043727" /><node id="313254109" x="145.0704159" y="-37.8079647" /><node id="367132897" x="144.9738332" y="-37.8092779" /><node id="306905333" x="144.9389868" y="-37.8109485" /><node id="313254135" x="145.0723068" y="-37.8044996" /><node id="572003399" x="144.9402669" y="-37.7965335" /><node id="202473725" x="144.9334558" y="-37.8040237" /><node id="86687998" x="144.9318641" y="-37.7946138" /><node id="2123710644" x="145.0547161" y="-37.8038552" /><node id="470974722" x="144.9499141" y="-37.7953708" /><node id="130040068" x="144.9358503" y="-37.8047916" /><node id="3394781451" x="144.9429623" y="-37.8055587" /><node id="3394781452" x="144.9428588" y="-37.8053949" /><node id="416817424" x="144.9784778" y="-37.8094731" /><node id="416817425" x="144.9791791" y="-37.8098651" /><node id="541122843" x="145.0098313" y="-37.8029749" /><node id="541122850" x="145.0096551" y="-37.8024563" /><node id="541122851" x="145.0097279" y="-37.8024572" /><node id="541122852" x="145.0098486" y="-37.80241" /><node id="541122853" x="145.0099138" y="-37.8024114" /><node id="2612216102" x="144.8604529" y="-37.81021" /><node id="541122855" x="145.0101775" y="-37.8024988" /><node id="541122856" x="145.0103274" y="-37.80246" /><node id="541122857" x="145.0105078" y="-37.8023684" /><node id="3221168426" x="144.8865252" y="-37.8022985" /><node id="541122859" x="145.0106091" y="-37.8022893" /><node id="541122860" x="145.0110204" y="-37.802111" /><node id="541122861" x="145.0112368" y="-37.8019746" /><node id="320848174" x="144.8729371" y="-37.8074821" /><node id="2612216111" x="144.8653077" y="-37.81208" /><node id="3811090737" x="145.0475407" y="-37.8013964" /><node id="320479539" x="144.8815569" y="-37.8228657" /><node id="541122878" x="145.0149943" y="-37.8051732" /><node id="2123178305" x="144.9035636" y="-37.7957862" /><node id="2123178307" x="144.9034774" y="-37.7962379" /><node id="541122884" x="145.0110624" y="-37.8033633" /><node id="67617094" x="144.9201474" y="-37.7984668" /><node id="2123178315" x="144.9034032" y="-37.7966268" /><node id="2207663847" x="144.9459712" y="-37.8006766" /><node id="309977425" x="145.0503845" y="-37.8012791" /><node id="309977428" x="145.0512102" y="-37.8033763" /><node id="250480014" x="145.0049929" y="-37.8120271" /><node id="3394768953" x="144.9516723" y="-37.8083098" /><node id="541122904" x="145.0111855" y="-37.8033128" /><node id="541122905" x="145.0094654" y="-37.8027452" /><node id="2694390107" x="144.9968268" y="-37.8042194" /><node id="313254237" x="145.0722559" y="-37.8044959" /><node id="321118228" x="144.8952449" y="-37.8077097" /><node id="313254240" x="145.0726395" y="-37.8082298" /><node id="3994641808" x="144.9954484" y="-37.7991186" /><node id="309977442" x="145.0515757" y="-37.8014252" /><node id="4815356259" x="144.9673157" y="-37.8074101" /><node id="311902564" x="145.0544711" y="-37.804816" /><node id="313254247" x="145.0734074" y="-37.8046216" /><node id="313254248" x="145.0732978" y="-37.8046082" /><node id="611991913" x="144.9554625" y="-37.8036544" /><node id="611991914" x="144.9556161" y="-37.8036726" /><node id="309969259" x="145.0333314" y="-37.8071492" /><node id="1522566189" x="145.030128" y="-37.8064868" /><node id="2102878576" x="144.869824" y="-37.8109765" /><node id="4826317170" x="144.8994882" y="-37.8052901" /><node id="4826317172" x="144.8987275" y="-37.8061311" /><node id="4826317173" x="144.8984429" y="-37.8060103" /><node id="838386039" x="144.9494647" y="-37.8029899" /><node id="3885834620" x="145.0597318" y="-37.8154165" /><node id="537510271" x="145.028758" y="-37.8070612" /><node id="309969280" x="145.0335515" y="-37.8057905" /><node id="5484183939" x="144.8823392" y="-37.8188401" /><node id="321536388" x="144.8869639" y="-37.8188897" /><node id="86674156" x="144.9388412" y="-37.7954076" /><node id="1801486737" x="144.8825799" y="-37.8043255" /><node id="506143125" x="144.923643" y="-37.7954868" /><node id="583197079" x="144.9092465" y="-37.8008305" /><node id="4457663215" x="144.924608" y="-37.7876571" /><node id="304701852" x="145.0368076" y="-37.8075511" /><node id="30220702" x="144.9826053" y="-37.8087173" /><node id="850722885" x="145.0379324" y="-37.8076811" /><node id="309977505" x="145.0523673" y="-37.8035017" /><node id="1522834336" x="145.0289897" y="-37.8072583" /><node id="3176128932" x="144.9083329" y="-37.8064987" /><node id="2696446375" x="144.985371" y="-37.8117628" /><node id="2481930664" x="145.0032768" y="-37.8104777" /><node id="4949987399" x="144.894136" y="-37.8175657" /><node id="2481930669" x="145.0034029" y="-37.8096921" /><node id="634774941" x="144.9383351" y="-37.8118628" /><node id="279249331" x="144.9283266" y="-37.7921458" /><node id="3215106486" x="144.9520784" y="-37.808936" /><node id="92242361" x="144.9306254" y="-37.7912222" /><node id="3215106490" x="144.9522245" y="-37.8088654" /><node id="4169720251" x="145.0312496" y="-37.8066203" /><node id="5427967045" x="144.9610548" y="-37.799984" /><node id="3215106497" x="144.9524056" y="-37.8077142" /><node id="4169720259" x="145.0304745" y="-37.8069193" /><node id="1279001028" x="144.8958036" y="-37.7993199" /><node id="67762934" x="144.9276729" y="-37.7930566" /><node id="309346766" x="145.0060753" y="-37.814713" /><node id="1928298965" x="145.0742633" y="-37.8066668" /><node id="3933094360" x="144.9595936" y="-37.806137" /><node id="3933094364" x="144.9594969" y="-37.8061359" /><node id="4169720285" x="145.0313776" y="-37.8065559" /><node id="3933094366" x="144.9603789" y="-37.8080051" /><node id="4169720287" x="145.0306202" y="-37.8068628" /><node id="4169720288" x="145.0306213" y="-37.80688" /><node id="456876513" x="144.9526821" y="-37.7975795" /><node id="875512290" x="145.0670854" y="-37.8049348" /><node id="875512291" x="145.0675843" y="-37.8050723" /><node id="84296166" x="144.9274062" y="-37.7937743" /><node id="26034664" x="144.9716374" y="-37.808432" /><node id="3480502762" x="144.9041304" y="-37.8052583" /><node id="26034669" x="144.9671114" y="-37.8108078" /><node id="309977587" x="145.0526119" y="-37.8015523" /><node id="67756739" x="144.9276426" y="-37.793699" /><node id="21643772" x="145.0381593" y="-37.8077073" /><node id="2481930754" x="145.0059353" y="-37.8115151" /><node id="2481930755" x="145.0063953" y="-37.8115594" /><node id="2481930756" x="145.0089974" y="-37.8118512" /><node id="2481930758" x="145.0078447" y="-37.8139635" /><node id="583067740" x="144.9196245" y="-37.8076322" /><node id="21643796" x="145.0596412" y="-37.8158746" /><node id="321118745" x="144.8901433" y="-37.808188" /><node id="129557020" x="144.9399538" y="-37.8113246" /><node id="129557021" x="144.9410449" y="-37.8119008" /><node id="2401378846" x="144.9209406" y="-37.8020803" /><node id="129557023" x="144.9421982" y="-37.8125604" /><node id="2236727840" x="145.0064638" y="-37.8111497" /><node id="129557025" x="144.9423987" y="-37.8126785" /><node id="129557026" x="144.9425986" y="-37.8127469" /><node id="2401378852" x="144.9080927" y="-37.8066421" /><node id="39690796" x="144.9506949" y="-37.796399" /><node id="313139758" x="145.072345" y="-37.8081966" /><node id="671323571" x="144.8907329" y="-37.7996883" /><node id="321118773" x="144.8909238" y="-37.8082812" /><node id="321118774" x="144.8922237" y="-37.8084235" /><node id="1982439994" x="145.0062345" y="-37.8142944" /><node id="39690812" x="144.9501856" y="-37.7973476" /><node id="1982440001" x="145.0061393" y="-37.8143539" /><node id="332544810" x="144.9390844" y="-37.7955007" /><node id="583189061" x="144.9057953" y="-37.805821" /><node id="1982440010" x="145.006183" y="-37.8143488" /><node id="313139789" x="145.0710986" y="-37.8080469" /><node id="1982440014" x="145.0062259" y="-37.814317" /><node id="1982440016" x="145.006208" y="-37.8143359" /><node id="67625554" x="144.9233869" y="-37.7946771" /><node id="746340949" x="144.9953579" y="-37.8049521" /><node id="3359202177" x="144.8816537" y="-37.8162637" /><node id="3146808079" x="144.9880858" y="-37.8120434" /><node id="1533600348" x="145.0207992" y="-37.8104166" /><node id="313139805" x="145.0698174" y="-37.8078916" /><node id="2247672417" x="145.0460713" y="-37.8012851" /><node id="313139810" x="145.0691357" y="-37.8113727" /><node id="2247672420" x="145.0464615" y="-37.8011364" /><node id="313139816" x="145.0685612" y="-37.8077301" /><node id="583197290" x="144.9093564" y="-37.8002877" /><node id="313139819" x="145.0678804" y="-37.8112223" /><node id="373645935" x="144.9289451" y="-37.8088511" /><node id="4428399220" x="144.8795558" y="-37.8199646" /><node id="313139836" x="145.0667211" y="-37.8075081" /><node id="373645955" x="144.9289276" y="-37.8090207" /><node id="598491783" x="145.0391161" y="-37.816853" /><node id="598491784" x="145.0392046" y="-37.8167936" /><node id="1888086807" x="144.960469" y="-37.7999186" /><node id="313139853" x="145.0663628" y="-37.8093922" /><node id="313139857" x="145.0653425" y="-37.8109184" /><node id="309076628" x="144.8969088" y="-37.8067442" /><node id="711369366" x="144.9591066" y="-37.8063468" /><node id="373645976" x="144.9291692" y="-37.8088654" /><node id="313139865" x="145.0656323" y="-37.809378" /><node id="1928315552" x="145.0714894" y="-37.8080701" /><node id="176693360" x="144.9614497" y="-37.8103372" /><node id="1928315555" x="145.0715632" y="-37.8080411" /><node id="1928315558" x="145.0715324" y="-37.8080425" /><node id="309969575" x="145.0345106" y="-37.8054448" /><node id="3933086392" x="144.9627765" y="-37.8068421" /><node id="746341037" x="144.9970679" y="-37.8032806" /><node id="1985551133" x="144.965933" y="-37.8069298" /><node id="3933086388" x="144.9642169" y="-37.8067375" /><node id="1928315573" x="145.0715068" y="-37.8080526" /><node id="775946936" x="144.958323" y="-37.8041525" /><node id="3933086393" x="144.9626971" y="-37.8065605" /><node id="774546107" x="144.9560692" y="-37.8059066" /><node id="301548220" x="144.9852247" y="-37.8065557" /><node id="1928315581" x="145.0716271" y="-37.8081084" /><node id="443302591" x="145.0034273" y="-37.8118953" /><node id="33317568" x="144.9482148" y="-37.8028506" /><node id="1928315586" x="145.0714809" y="-37.808091" /><node id="313139907" x="145.0661593" y="-37.8094416" /><node id="3221119684" x="144.9511596" y="-37.7963591" /><node id="1928315589" x="145.0716037" y="-37.8080577" /><node id="313139910" x="145.0667611" y="-37.8110883" /><node id="320488135" x="144.8775485" y="-37.8191702" /><node id="1928315592" x="145.0716264" y="-37.8080889" /><node id="409550967" x="144.9997201" y="-37.7995275" /><node id="777790156" x="144.9549696" y="-37.8076832" /><node id="777790159" x="144.9548852" y="-37.8081028" /><node id="4029432529" x="144.9513399" y="-37.7966239" /><node id="202522745" x="144.918175" y="-37.7996019" /><node id="777790169" x="144.955006" y="-37.8083827" /><node id="4029432540" x="144.950305" y="-37.7956885" /><node id="409550970" x="144.9998033" y="-37.7995556" /><node id="4087489253" x="144.8920117" y="-37.8168092" /><node id="321118950" x="144.8847373" y="-37.8063575" /><node id="313139946" x="145.0659671" y="-37.8074228" /><node id="4544561900" x="144.9729904" y="-37.8112936" /><node id="4544561901" x="144.9729459" y="-37.8113061" /><node id="4544561902" x="144.9730165" y="-37.8112864" /><node id="4544561903" x="144.9730519" y="-37.8112768" /><node id="1132069617" x="144.9429385" y="-37.8127164" /><node id="30221043" x="145.0097636" y="-37.8114336" /><node id="723976949" x="145.0088923" y="-37.8113217" /><node id="4746494710" x="144.8973291" y="-37.8145092" /><node id="30221048" x="145.0159673" y="-37.8122155" /><node id="30221049" x="145.0368347" y="-37.8146892" /><node id="778814205" x="144.9556883" y="-37.7995307" /><node id="202522752" x="144.9194515" y="-37.7988644" /><node id="332544811" x="144.9400168" y="-37.7963053" /><node id="332544812" x="144.9439373" y="-37.799918" /><node id="777826283" x="144.95744" y="-37.8038835" /><node id="92242705" x="144.9314285" y="-37.7919805" /><node id="92242707" x="144.9309258" y="-37.7919262" /><node id="122727215" x="144.900606" y="-37.8128859" /><node id="4283908892" x="145.0160766" y="-37.812244" /><node id="2190483589" x="144.9604628" y="-37.8081942" /><node id="313140000" x="145.0621409" y="-37.8028146" /><node id="3494863649" x="145.0685451" y="-37.8113042" /><node id="3494863650" x="145.0647971" y="-37.8108531" /><node id="313140003" x="145.0648414" y="-37.8031472" /><node id="313140004" x="145.0690637" y="-37.8036732" /><node id="3218293543" x="144.9527726" y="-37.8044502" /><node id="3218293545" x="144.9527486" y="-37.8044471" /><node id="3218293548" x="144.9535055" y="-37.8045443" /><node id="320490290" x="144.867831" y="-37.8147675" /><node id="3218293550" x="144.9534528" y="-37.8045376" /><node id="3218293554" x="144.9542709" y="-37.8044483" /><node id="373067117" x="144.9151728" y="-37.7939676" /><node id="746341185" x="144.9962934" y="-37.8075944" /><node id="544367430" x="145.0095198" y="-37.8023772" /><node id="767583050" x="144.9717387" y="-37.8083862" /><node id="313140045" x="145.0644391" y="-37.8053189" /><node id="528515921" x="144.9998273" y="-37.7995527" /><node id="528515922" x="144.9997669" y="-37.7995517" /><node id="528515923" x="144.9997344" y="-37.7995381" /><node id="767693506" x="144.9736861" y="-37.8045539" /><node id="1354965851" x="144.9197252" y="-37.7987069" /><node id="1868684090" x="144.9307613" y="-37.7932841" /><node id="547586916" x="144.9862738" y="-37.8136133" /><node id="547586920" x="144.9875666" y="-37.8132017" /><node id="2631959402" x="144.9064092" y="-37.7950267" /><node id="3537281902" x="144.9637831" y="-37.8008529" /><node id="250004335" x="144.8982489" y="-37.8058549" /><node id="3537281904" x="144.9638159" y="-37.8006516" /><node id="130040689" x="144.932203" y="-37.8036999" /><node id="306905235" x="144.9384048" y="-37.8119931" /><node id="767665017" x="144.9734019" y="-37.8077306" /><node id="95544192" x="144.9311341" y="-37.7945305" /><node id="364869016" x="144.9763334" y="-37.8044436" /><node id="313140107" x="145.0657844" y="-37.8054867" /><node id="571835276" x="144.8709958" y="-37.8116563" /><node id="571835277" x="144.877302" y="-37.8183393" /><node id="571835278" x="144.8772269" y="-37.8180246" /><node id="571835279" x="144.8771813" y="-37.8178424" /><node id="571835280" x="144.8771049" y="-37.8175521" /><node id="571835281" x="144.876999" y="-37.8173932" /><node id="571835282" x="144.8769037" y="-37.8170945" /><node id="30948163" x="145.0081087" y="-37.8135416" /><node id="571835284" x="144.8767294" y="-37.8168508" /><node id="571835285" x="144.8766409" y="-37.8165944" /><node id="571835286" x="144.8765483" y="-37.8164524" /><node id="253539106" x="144.8667551" y="-37.8119659" /><node id="1725211551" x="144.9952669" y="-37.798104" /><node id="1725211552" x="144.9947559" y="-37.7979961" /><node id="1725211554" x="144.9945498" y="-37.797982" /><node id="1725211555" x="144.993999" y="-37.7979484" /><node id="1725211556" x="144.9951607" y="-37.798092" /><node id="2291073957" x="144.9688582" y="-37.8081719" /><node id="571835303" x="144.8721924" y="-37.8133705" /><node id="571835304" x="144.872116" y="-37.8132603" /><node id="571835305" x="144.871939" y="-37.812917" /><node id="571835306" x="144.8717861" y="-37.8126807" /><node id="571835307" x="144.8715849" y="-37.8123809" /><node id="571835308" x="144.87142" y="-37.8121775" /><node id="571835309" x="144.8710847" y="-37.8117674" /><node id="2291073966" x="144.9648278" y="-37.8092139" /><node id="306905245" x="144.9383498" y="-37.8116403" /><node id="321119152" x="144.8901965" y="-37.8077765" /><node id="2291073976" x="144.961391" y="-37.8102099" /><node id="1192149947" x="145.0033788" y="-37.8007741" /><node id="224762698" x="144.9963551" y="-37.8076028" /><node id="309969854" x="145.0359015" y="-37.8049434" /><node id="321531241" x="144.887068" y="-37.8183048" /><node id="571835329" x="144.8725314" y="-37.813763" /><node id="571835330" x="144.8729942" y="-37.8137549" /><node id="1833722819" x="144.8852748" y="-37.8159812" /><node id="298099652" x="144.9787421" y="-37.8006866" /><node id="774546373" x="144.9595345" y="-37.8062153" /><node id="774546374" x="144.959634" y="-37.8062264" /><node id="86688712" x="144.9303016" y="-37.7911834" /><node id="400753610" x="144.9369169" y="-37.8095207" /><node id="400753614" x="144.93699" y="-37.8097758" /><node id="571835347" x="144.8770032" y="-37.816207" /><node id="4169720791" x="145.0255146" y="-37.8109881" /><node id="571835357" x="144.8746748" y="-37.8145507" /><node id="571835358" x="144.8752046" y="-37.8147213" /><node id="2123710629" x="145.0547278" y="-37.8036908" /><node id="571835360" x="144.8763753" y="-37.815002" /><node id="711369697" x="144.9592734" y="-37.806456" /><node id="571835362" x="144.8765135" y="-37.815037" /><node id="4169720803" x="145.0225284" y="-37.8140861" /><node id="571835364" x="144.8768555" y="-37.8152542" /><node id="571835365" x="144.8771143" y="-37.8154619" /><node id="571835367" x="144.8773315" y="-37.815838" /><node id="571835368" x="144.8772631" y="-37.8160477" /><node id="571835369" x="144.8770875" y="-37.8161643" /><node id="571270124" x="144.9491759" y="-37.7947838" /><node id="462849005" x="145.0625587" y="-37.8095822" /><node id="462849009" x="145.0620276" y="-37.8095172" /><node id="214131699" x="145.0225951" y="-37.8106308" /><node id="2123710633" x="145.0547653" y="-37.8038246" /><node id="250291195" x="144.8921068" y="-37.8168201" /><node id="250291196" x="144.8909227" y="-37.8166867" /><node id="250291199" x="144.8829113" y="-37.8158018" /><node id="250291200" x="144.8922056" y="-37.8163332" /><node id="571835393" x="144.8771297" y="-37.8161363" /><node id="4765991940" x="144.8942852" y="-37.8169766" /><node id="4297530198" x="144.9779365" y="-37.8015976" /><node id="3285623814" x="144.9317326" y="-37.8090858" /><node id="1522566152" x="145.0287594" y="-37.8072113" /><node id="1522566154" x="145.0295471" y="-37.8065726" /><node id="298099723" x="144.9785723" y="-37.8016545" /><node id="214131724" x="145.0255356" y="-37.8109907" /><node id="4765991949" x="144.8942458" y="-37.8168956" /><node id="4765991950" x="144.8942608" y="-37.816886" /><node id="4765991953" x="144.894348" y="-37.8169083" /><node id="4765991954" x="144.8943532" y="-37.8169247" /><node id="4765991955" x="144.8943509" y="-37.8169416" /><node id="4765991956" x="144.8943416" y="-37.8169568" /><node id="250291221" x="144.8910108" y="-37.8162126" /><node id="4765991958" x="144.8943066" y="-37.8169754" /><node id="547587095" x="144.9902428" y="-37.8135038" /><node id="1367589912" x="144.9740922" y="-37.8032259" /><node id="1367589913" x="144.9738512" y="-37.8041269" /><node id="1367589915" x="144.973728" y="-37.8041119" /><node id="313140253" x="145.068976" y="-37.8041119" /><node id="30942238" x="144.9094887" y="-37.8008577" /><node id="313140255" x="145.0687788" y="-37.8045044" /><node id="321119268" x="144.8873558" y="-37.8081801" /><node id="1522566181" x="145.0286527" y="-37.8076585" /><node id="2967053354" x="144.9980726" y="-37.80737" /><node id="777831467" x="144.9580896" y="-37.8039508" /><node id="30942252" x="144.9392258" y="-37.805919" /><node id="30942253" x="144.9414292" y="-37.8054613" /><node id="30942256" x="144.9429733" y="-37.8054874" /><node id="1985549832" x="144.9663902" y="-37.8034761" /><node id="373654582" x="144.9155963" y="-37.8092374" /><node id="2266563639" x="144.9536876" y="-37.8088633" /><node id="373654585" x="144.9152959" y="-37.8091967" /><node id="373654586" x="144.9147895" y="-37.8091696" /><node id="373654587" x="144.9131415" y="-37.8091289" /><node id="373654589" x="144.912721" y="-37.8091493" /><node id="373654591" x="144.9123519" y="-37.8091967" /><node id="373654592" x="144.9121202" y="-37.809251" /><node id="4297530208" x="144.9772251" y="-37.8056962" /><node id="373654594" x="144.9115451" y="-37.8094137" /><node id="2266563651" x="144.9539995" y="-37.8087371" /><node id="373654596" x="144.9110988" y="-37.8095358" /><node id="373654598" x="144.9108756" y="-37.8095697" /><node id="5556315207" x="144.9357896" y="-37.807394" /><node id="373654600" x="144.910455" y="-37.8095765" /><node id="214099017" x="145.0205354" y="-37.8111449" /><node id="313140298" x="145.0670976" y="-37.8075525" /><node id="373654604" x="144.9094205" y="-37.8095244" /><node id="373654606" x="144.909002" y="-37.8094651" /><node id="2266563663" x="144.9548196" y="-37.8085051" /><node id="2102862928" x="144.8687983" y="-37.8149141" /><node id="373654609" x="144.907165" y="-37.8090207" /><node id="5556315220" x="144.9391348" y="-37.8059806" /><node id="313140309" x="145.0681059" y="-37.8035582" /><node id="4061250646" x="144.9700611" y="-37.8009521" /><node id="67804769" x="144.9293692" y="-37.7898831" /><node id="214099039" x="145.0202597" y="-37.8127368" /><node id="4061250656" x="144.969772" y="-37.8009308" /><node id="777790992" x="144.9549645" y="-37.8083954" /><node id="1409483878" x="144.8764456" y="-37.8164263" /><node id="222987367" x="144.9880745" y="-37.8067851" /><node id="3589874793" x="144.9283927" y="-37.8105155" /><node id="3589874795" x="144.9286781" y="-37.810115" /><node id="2299094546" x="144.8885021" y="-37.8175435" /><node id="777721819" x="144.9550834" y="-37.8057665" /><node id="2299094547" x="144.8883775" y="-37.8182156" /><node id="2102862967" x="144.8688433" y="-37.8149686" /><node id="2102862968" x="144.8716737" y="-37.8161182" /><node id="1522566266" x="145.0295792" y="-37.8064169" /><node id="1522566268" x="145.0293823" y="-37.8072739" /><node id="122725511" x="144.8995547" y="-37.8154413" /><node id="2102862986" x="144.8671095" y="-37.81277" /><node id="3367904397" x="144.9703483" y="-37.8120797" /><node id="35726479" x="144.9090105" y="-37.8067591" /><node id="35726480" x="144.9086605" y="-37.8068751" /><node id="35726481" x="144.9084631" y="-37.8068005" /><node id="3367904410" x="144.968108" y="-37.8126094" /><node id="2309762280" x="144.8998425" y="-37.8038324" /><node id="3367904414" x="144.9661053" y="-37.808853" /><node id="3367904416" x="144.9685643" y="-37.8081396" /><node id="3367904418" x="144.9669929" y="-37.8108423" /><node id="493102245" x="144.989406" y="-37.7974214" /><node id="493102250" x="144.9893627" y="-37.7973916" /><node id="1522566317" x="145.0290832" y="-37.8073809" /><node id="4794459318" x="144.9335986" y="-37.8040696" /><node id="2247591096" x="145.0467282" y="-37.8010258" /><node id="2209383610" x="144.9575006" y="-37.7996797" /><node id="151434783" x="144.98932" y="-37.7980504" /><node id="622959751" x="144.9063954" y="-37.8004987" /><node id="2247591101" x="145.0461477" y="-37.8012578" /><node id="2247591102" x="145.0449066" y="-37.8015671" /><node id="1224869055" x="144.9405217" y="-37.8129196" /><node id="1224869056" x="144.9410974" y="-37.8134275" /><node id="1224869058" x="144.9408574" y="-37.8134657" /><node id="2247591108" x="145.0449145" y="-37.8015101" /><node id="250043408" x="144.9065577" y="-37.7996751" /><node id="2247591111" x="145.0449219" y="-37.8016208" /><node id="3933095114" x="144.9713252" y="-37.8075237" /><node id="250291403" x="144.8708708" y="-37.8113845" /><node id="2247591117" x="145.0459901" y="-37.8013141" /><node id="250291406" x="144.8700008" y="-37.811118" /><node id="304710870" x="144.9347841" y="-37.8094097" /><node id="304710871" x="144.9355051" y="-37.8095046" /><node id="250291418" x="144.8677413" y="-37.8110214" /><node id="560997595" x="144.9384715" y="-37.8102567" /><node id="250479836" x="145.0064662" y="-37.8111341" /><node id="4294474618" x="144.9738245" y="-37.8041237" /><node id="767747295" x="144.9741407" y="-37.8012711" /><node id="4294474619" x="144.9738625" y="-37.8041249" /><node id="3322065107" x="144.9421632" y="-37.8130131" /><node id="309977300" x="145.0522895" y="-37.8034932" /><node id="5158248175" x="144.8677532" y="-37.8081369" /><node id="130042834" x="144.9118769" y="-37.8010164" /><node id="30287105" x="144.9043062" y="-37.7949351" /><node id="4789353345" x="144.8852094" y="-37.8160009" /><node id="571835659" x="144.8741142" y="-37.8143833" /><node id="571835660" x="144.8739922" y="-37.8143303" /><node id="777782541" x="144.9537947" y="-37.8045815" /><node id="571835662" x="144.8738769" y="-37.8143166" /><node id="571835663" x="144.8735899" y="-37.8143378" /><node id="709707024" x="144.9425214" y="-37.8127283" /><node id="571835665" x="144.8730749" y="-37.8141576" /><node id="571835666" x="144.872977" y="-37.8140591" /><node id="571835667" x="144.8729515" y="-37.8138684" /><node id="30942487" x="144.9350517" y="-37.8045313" /><node id="571835673" x="144.8747152" y="-37.8145637" /><node id="571835674" x="144.874297" y="-37.8145198" /><node id="571835675" x="144.8744779" y="-37.8144519" /><node id="571835677" x="144.8756185" y="-37.8148421" /><node id="2841675040" x="144.9689175" y="-37.8080366" /><node id="400753602" x="144.9369713" y="-37.8093489" /><node id="4794459427" x="144.9346911" y="-37.8044173" /><node id="2841675044" x="144.9681941" y="-37.8082466" /><node id="30287141" x="144.9111989" y="-37.795498" /><node id="320488742" x="144.8723406" y="-37.8136703" /><node id="