<routes><vType accel="4.3" decel="5.5" id="Car0" length="20.2" maxSpeed="106" sigma="0.29652234505" /><vType accel="1.5" decel="7.8" id="Car1" length="8.1" maxSpeed="76" sigma="0.715439588049" /><vType accel="2.5" decel="6.8" id="Car2" length="24.2" maxSpeed="91" sigma="0.995713295709" /><vType accel="3.1" decel="4.8" id="Car3" length="18.8" maxSpeed="79" sigma="0.640402591768" /><vType accel="3.3" decel="4.0" id="Car4" length="14.0" maxSpeed="72" sigma="0.406370607756" /><vType accel="4.0" decel="4.0" id="Car5" length="23.0" maxSpeed="72" sigma="0.221715449745" /><vType accel="1.5" decel="4.6" id="Car6" length="8.2" maxSpeed="93" sigma="0.0416342775906" /><vType accel="4.2" decel="8.0" id="Car7" length="14.2" maxSpeed="101" sigma="0.353616050137" /><vType accel="4.4" decel="4.8" id="Car8" length="24.0" maxSpeed="119" sigma="0.770287445996" /><vType accel="3.0" decel="6.1" id="Car9" length="23.7" maxSpeed="97" sigma="0.000232196210344" /><vType accel="3.6" decel="2.7" id="Car10" length="20.8" maxSpeed="91" sigma="0.819293339228" /><vType accel="2.1" decel="7.1" id="Car11" length="20.8" maxSpeed="112" sigma="0.194153305045" /><vType accel="1.2" decel="6.9" id="Car12" length="18.8" maxSpeed="60" sigma="0.291222975164" /><vType accel="3.3" decel="5.3" id="Car13" length="14.2" maxSpeed="111" sigma="0.11121542542" /><vType accel="1.3" decel="2.9" id="Car14" length="18.5" maxSpeed="91" sigma="0.976182808821" /><vType accel="4.7" decel="2.8" id="Car15" length="21.2" maxSpeed="85" sigma="0.813439377012" /><vType accel="2.5" decel="3.4" id="Car16" length="22.6" maxSpeed="78" sigma="0.634158410506" /><vType accel="2.0" decel="6.9" id="Car17" length="10.5" maxSpeed="97" sigma="0.303240406574" /><vType accel="4.9" decel="6.4" id="Car18" length="12.5" maxSpeed="99" sigma="0.933626380264" /><vType accel="1.5" decel="4.1" id="Car19" length="11.5" maxSpeed="69" sigma="0.282006159355" /><vType accel="1.5" decel="4.1" id="back_car" length="11.5" maxSpeed="69" sigma="0.282006159355" /><route edges="1928298965_313441110 313441110_313440691 313440691_313441737 313441737_313254240 313254240_313139758 313139758_1928315581 1928315581_1928315592 1928315592_1928315579 1928315579_1928315589 1928315589_1928315553 1928315553_1928315555 1928315555_1928315558 1928315558_1928315573 1928315573_1928315552 1928315552_1928315586 1928315586_313139789 313139789_313254109 313254109_313139805 313139805_313254077 313254077_313139816 313139816_313140298 313140298_313139836 313139836_673083815 673083815_313139946 313139946_313140141 313140141_313248476 313248476_313248461 313248461_313139437 313139437_462865616 462865616_462864770 462864770_462854827 462854827_313139919 313139919_311901379 311901379_311900985 311900985_4326585007 4326585007_4142788511 4142788511_29936554 29936554_4326585008 4326585008_4142788490 4142788490_311901127 311901127_29960343 29960343_2245577417 2245577417_304705278 304705278_304705227 304705227_309975117 309975117_2815396513 2815396513_2245577418 2245577418_304705215 304705215_2815396505 2815396505_309975281 309975281_309975083 309975083_304704681 304704681_2245577415 2245577415_309975063 309975063_29960342 29960342_304704449 304704449_309972751 309972751_2245577416 2245577416_304704443 304704443_2938998243 2938998243_304704440 304704440_4288151643 4288151643_2245545092 2245545092_304704441 304704441_2080740183 2080740183_304704434 304704434_304704433 304704433_304700954 304700954_304704420 304704420_4739203039 4739203039_30948249 30948249_304700940 304700940_304701851 304701851_304700794 304700794_2296771813 2296771813_304700760 304700760_3506373724 3506373724_304700727 304700727_2245347134 2245347134_304701495 304701495_304701503 304701503_3224362684 3224362684_1487228141 1487228141_1487228084 1487228084_1487228003 1487228003_1487228036 1487228036_1487228148 1487228148_1487228031 1487228031_4169720288 4169720288_1487227988 1487227988_29936553 29936553_4169720259 4169720259_309978787 309978787_1522977019 1522977019_1522839079 1522839079_1522566268 1522566268_1522834359 1522834359_1522566317 1522566317_1522834449 1522834449_1522834336 1522834336_1522834355 1522834355_31477188 31477188_31477187 31477187_31477186 31477186_2940375840 2940375840_370477432 370477432_214122372 214122372_370477489 370477489_31477185 31477185_31477184 31477184_2940375839 2940375839_370477495 370477495_214122180 214122180_214092481 214092481_541122878 541122878_31477183 31477183_5546311686 5546311686_740374973 740374973_114268737 114268737_299026732 299026732_2567155992 2567155992_541122843 541122843_608962184 608962184_691082186 691082186_31477182 31477182_31477181 31477181_31477180 31477180_2774434013 2774434013_31477179 31477179_128893036 128893036_31477178 31477178_31477177 31477177_31477176 31477176_4698484056 4698484056_561538868 561538868_31477175 31477175_305909758 305909758_31477174 31477174_906234095 906234095_3067843936 3067843936_827113739 827113739_128874949 128874949_4698523258 4698523258_128874985 128874985_305913666 305913666_151451933 151451933_305913661 305913661_305913663 305913663_128882514 128882514_1519470746 1519470746_31477172 31477172_1519470912 1519470912_283059741 283059741_129288570 129288570_2006021064 2006021064_5034416925 5034416925_1519470958 1519470958_4696480570 4696480570_319860962 319860962_4696480571 4696480571_1519471032 1519471032_1519471015 1519471015_1521014718 1521014718_31477171 31477171_38779052 38779052_248969197 248969197_3311863658 3311863658_3311863659 3311863659_3311863660 3311863660_2672588668 2672588668_810963146 810963146_384027031 384027031_3823791807 3823791807_493102375 493102375_384027591 384027591_493102372 493102372_384027122 384027122_151434783 151434783_2149732940 2149732940_151434770 151434770_233247093 233247093_401505348 401505348_2214002875 2214002875_233247032 233247032_30287474 30287474_2214002871 2214002871_385176413 385176413_233255161 233255161_233255141 233255141_233270800 233270800_2457712012 2457712012_384006353 384006353_233270817 233270817_233255184 233255184_248969233 248969233_233262815 233262815_600329022 600329022_4297530169 4297530169_4297530168 4297530168_384005156 384005156_600329021 600329021_4297530194 4297530194_31477168 31477168_4297530193 4297530193_4297530167 4297530167_361268958 361268958_230784835 230784835_230782496 230782496_388571186 388571186_388569480 388569480_4000075632 4000075632_2199393936 2199393936_4294474597 4294474597_4294474596 4294474596_2199393955 2199393955_2199393953 2199393953_2347142385 2347142385_4000075633 4000075633_4000075634 4000075634_2199393934 2199393934_368094019 368094019_291966939 291966939_540056237 540056237_291966932 291966932_1367582250 1367582250_769188524 769188524_767747204 767747204_767747295 767747295_767747936 767747936_767747938 767747938_767747939 767747939_368389504 368389504_368390159 368390159_368390158 368390158_767819745 767819745_767753042 767753042_767753041 767753041_368390010 368390010_767752914 767752914_767752915 767752915_767752955 767752955_767752598 767752598_767726007 767726007_30287406 30287406_30287414 30287414_34160616 34160616_446051232 446051232_30287401 30287401_446051231 446051231_30287413 30287413_446051230 446051230_30287386 30287386_244222508 244222508_370243915 370243915_30287405 30287405_677245570 677245570_137182987 137182987_1985549817 1985549817_1985549821 1985549821_2005895266 2005895266_477075431 477075431_477081585 477081585_30947458 30947458_1725216573 1725216573_1725216536 1725216536_330775681 330775681_356215259 356215259_356215252 356215252_1492410199 1492410199_1492410161 1492410161_1492175321 1492175321_1492350740 1492350740_1492350741 1492350741_1492175306 1492175306_1492175308 1492175308_1492175310 1492175310_1492175312 1492175312_1492175313 1492175313_1492410160 1492410160_1492410220 1492410220_1492410197 1492410197_1492410168 1492410168_1492410184 1492410184_1492410166 1492410166_3933088999 3933088999_1492410217 1492410217_1492410213 1492410213_312718905 312718905_775942860 775942860_33238476 33238476_3933082771 3933082771_312718293 312718293_52600140 52600140_1725216623 1725216623_3933082767 3933082767_52600163 52600163_777828239 777828239_2383215085 2383215085_307350280 307350280_777833057 777833057_777829815 777829815_777829277 777829277_777832607 777832607_307350279 307350279_777831467 777831467_777827023 777827023_777826283 777826283_777826228 777826228_30943324 30943324_780909297 780909297_780910447 780910447_780910234 780910234_780909517 780909517_89531904 89531904_3933082774 3933082774_611991914 611991914_777804660 777804660_777804656 777804656_777804655 777804655_35285652 35285652_2984287417 2984287417_777804079 777804079_777806543 777806543_777803391 777803391_2984287419 2984287419_475511476 475511476_1686719046 1686719046_35523904 35523904_1686719017 1686719017_1686719014 1686719014_2096325811 2096325811_2096325799 2096325799_2096325816 2096325816_2096325806 2096325806_2096325804 2096325804_2096325801 2096325801_2096325822 2096325822_2096325832 2096325832_2096325821 2096325821_1686718973 1686718973_475511486 475511486_54401918 54401918_283334322 283334322_1994687855 1994687855_283334321 283334321_283334320 283334320_282825815 282825815_282825860 282825860_282825859 282825859_282825845 282825845_282825847 282825847_282825790 282825790_282825795 282825795_387153067 387153067_54399736 54399736_54399741 54399741_780995790 780995790_838386039 838386039_781112997 781112997_781112995 781112995_781112992 781112992_33317568 33317568_2365009329 2365009329_2207974407 2207974407_4460254047 4460254047_387153044 387153044_3394776717 3394776717_3094966840 3094966840_387153045 387153045_3094966842 3094966842_572004507 572004507_3094966844 3094966844_702451422 702451422_3394779111 3394779111_702478358 702478358_702451456 702451456_702451430 702451430_702451433 702451433_3394764077 3394764077_702478083 702478083_702451442 702451442_1833877038 1833877038_702451267 702451267_1833877037 1833877037_702451248 702451248_702452647 702452647_332543902 332543902_3394781452 3394781452_702363904 702363904_130038130 130038130_130038129 130038129_702363903 702363903_130038128 130038128_130038127 130038127_306383379 306383379_702363855 702363855_702363888 702363888_30942253 30942253_702351483 702351483_702351482 702351482_702351481 702351481_130038331 130038331_130038330 130038330_130038296 130038296_130038295 130038295_130038294 130038294_130038293 130038293_130038292 130038292_30942252 30942252_30942249 30942249_702351475 702351475_30942248 30942248_76459457 76459457_702351474 702351474_130039046 130039046_702351473 702351473_702351447 702351447_130039064 130039064_3790949319 3790949319_1833875777 1833875777_3555805912 3555805912_4273053908 4273053908_3790949317 3790949317_3790949307 3790949307_130040068 130040068_583063758 583063758_30942487 30942487_4794459427 4794459427_130042878 130042878_4794459318 4794459318_202473725 202473725_130042877 130042877_130042876 130042876_130042875 130042875_130043112 130043112_130042874 130042874_130042873 130042873_130042872 130042872_130042871 130042871_130042869 130042869_3326880158 3326880158_130042868 130042868_1112411372 1112411372_130043040 130043040_3326880159 3326880159_3326880156 3326880156_3326880153 3326880153_130042866 130042866_202520404 202520404_2401378847 2401378847_2401378846 2401378846_202519507 202519507_130042854 130042854_130042853 130042853_130042852 130042852_130042851 130042851_130042850 130042850_130042849 130042849_130042848 130042848_3790964227 3790964227_130042847 130042847_202661082 202661082_130042845 130042845_130042844 130042844_130042935 130042935_1112411407 1112411407_1112411379 1112411379_1112411390 1112411390_1112411445 1112411445_1112411450 1112411450_1112411427 1112411427_130044430 130044430_130043644 130043644_130042836 130042836_130042835 130042835_130042834 130042834_2479076502 2479076502_130042833 130042833_67610780 67610780_2479076496 2479076496_2479076495 2479076495_30942238 30942238_583197079 583197079_622959760 622959760_130042127 130042127_5536422989 5536422989_622959751 622959751_249996725 249996725_30942237 30942237_314470621 314470621_30942236 30942236_4486060215 4486060215_4486060216 4486060216_4486060217 4486060217_4486060218 4486060218_622951013 622951013_250043642 250043642_622950849 622950849_622950851 622950851_622950853 622950853_2299087300 2299087300_250044208 250044208_2299087299 2299087299_2299087297 2299087297_4062582887 4062582887_2299087295 2299087295_250043929 250043929_323100462 323100462_323100294 323100294_3359295213 3359295213_30287105 30287105_2394611158 2394611158_2394611159 2394611159_2394611160 2394611160_2394611161 2394611161_2394611162 2394611162_828479666 828479666_38770381 38770381_36022691 36022691_2394610817 2394610817_36024275 36024275_36024276 36024276_3359295220 3359295220_3359295216 3359295216_38770260 38770260_4141911396 4141911396_4141911397 4141911397_258315331 258315331_258315333 258315333_4443156869 4443156869_258315321 258315321_4443156868 4443156868_62329744 62329744_62328584 62328584_75115237 75115237_2088187881 2088187881_4427569747 4427569747_289326015 289326015_289326016 289326016_2524215110 2524215110_289320748 289320748_289320751 289320751_289320756 289320756_289320759 289320759_2524215128 2524215128_2524215127 2524215127_289320758 289320758_2524215164 2524215164_2524215167 2524215167_268396231 268396231_289320763 289320763_1277984562 1277984562_1277984690 1277984690_268396189 268396189_1277984574 1277984574_2524215195 2524215195_671319695 671319695_4443156867 4443156867_833664061 833664061_671319673 671319673_671319670 671319670_3215374639 3215374639_671319664 671319664_671319660 671319660_832409142 832409142_832391719 832391719_253752874 253752874_1833142699 1833142699_36022342 36022342_3359255433 3359255433_3359255435 3359255435_2268148328 2268148328_320846340 320846340_320846339 320846339_320847097 320847097_2268148331 2268148331_320846338 320846338_320846337 320846337_320846726 320846726_5158239514 5158239514_320846479 320846479_2268148333 2268148333_3855648786 3855648786_36022336 36022336_36022335 36022335_253546237 253546237_36022334 36022334_36022333 36022333_3359255438 3359255438_3855646545 3855646545_250291504 250291504_36022332 36022332_3359255471 3359255471_36022331 36022331_2612216109 2612216109_2612216101 2612216101_36022330 36022330_2612216110 2612216110_2299087307 2299087307_2299087308 2299087308_2299087306 2299087306_2612216105 2612216105_2299087310 2299087310_2299087311 2299087311_2299087312 2299087312_2612216104 2612216104_2299087313 2299087313_2299087314 2299087314_2299087315 2299087315_2299087317 2299087317_2299087318 2299087318_2299087321 2299087321_370708433 " id="route0" /><route edges="1928298965_313441110 313441110_313440691 313440691_313441737 313441737_313254240 313254240_313139758 313139758_1928315581 1928315581_1928315592 1928315592_1928315579 1928315579_1928315589 1928315589_1928315553 1928315553_1928315555 1928315555_1928315558 1928315558_1928315573 1928315573_1928315552 1928315552_1928315586 1928315586_313139789 313139789_313254109 313254109_313139805 313139805_313254077 313254077_313139816 313139816_313140298 313140298_313139836 313139836_673083815 673083815_313139946 313139946_313139945 313139945_1928284033 1928284033_313139944 313139944_1928284050 1928284050_313139943 313139943_2425453618 2425453618_2425453607 2425453607_313139919 313139919_311901379 311901379_311900985 311900985_4326585007 4326585007_4142788511 4142788511_29936554 29936554_4326585008 4326585008_4142788490 4142788490_311901127 311901127_29960343 29960343_2245577417 2245577417_304705278 304705278_304705227 304705227_309975117 309975117_2815396513 2815396513_2245577418 2245577418_304705215 304705215_2815396505 2815396505_309975281 309975281_309975083 309975083_304704681 304704681_2245577415 2245577415_309975063 309975063_29960342 29960342_304704449 304704449_309972751 309972751_2245577416 2245577416_304704443 304704443_2245788924 2245788924_304704442 304704442_304701242 304701242_2938998251 2938998251_2938998247 2938998247_2938998252 2938998252_2938998255 2938998255_2938998258 2938998258_2938998259 2938998259_598493273 598493273_598493271 598493271_598493269 598493269_598493267 598493267_304701220 304701220_598493265 598493265_598493264 598493264_598493263 598493263_598493262 598493262_598493261 598493261_304700980 304700980_304701112 304701112_304700973 304700973_304701070 304701070_304701069 304701069_304715909 304715909_4034618807 4034618807_304716478 304716478_304716427 304716427_304716379 304716379_4790937700 4790937700_304715956 304715956_304712583 304712583_518303982 518303982_518303960 518303960_518303945 518303945_518303766 518303766_518303767 518303767_518303768 518303768_518303769 518303769_518303770 518303770_518303772 518303772_518303774 518303774_577063508 577063508_21643697 21643697_304700581 304700581_2370318505 2370318505_344806937 344806937_344806935 344806935_30385374 30385374_4169720801 4169720801_4169720800 4169720800_2241788901 2241788901_4169720797 4169720797_4169720796 4169720796_2241798888 2241798888_214118052 214118052_4211625372 4211625372_3498527026 3498527026_214099039 214099039_1533481705 1533481705_214117760 214117760_30221048 30221048_277362814 277362814_4283908187 4283908187_2241696406 2241696406_277362811 277362811_1546958636 1546958636_1546958634 1546958634_2241696401 2241696401_2978801845 2978801845_2978801848 2978801848_2978801846 2978801846_2978801847 2978801847_277362808 277362808_723980903 723980903_277362807 277362807_277362806 277362806_723980902 723980902_3394892452 3394892452_277362804 277362804_723976949 723976949_4283908179 4283908179_277362770 277362770_30948162 30948162_610682568 610682568_1657117469 1657117469_610682578 610682578_1657117886 1657117886_610682590 610682590_2481930755 2481930755_2481930754 2481930754_5167159990 5167159990_443302598 443302598_5167159989 5167159989_443302587 443302587_5167159986 5167159986_4283908173 4283908173_30947985 30947985_250480649 250480649_30947983 30947983_705744124 705744124_250480655 250480655_30948020 30948020_250480669 250480669_250480666 250480666_2237521759 2237521759_30947901 30947901_224765801 224765801_129952492 129952492_355818807 355818807_129953571 129953571_1404234340 1404234340_1404234341 1404234341_1404234339 1404234339_1404234345 1404234345_1519390576 1519390576_1519390555 1519390555_248746705 248746705_248746704 248746704_248746724 248746724_248746706 248746706_248746698 248746698_248746699 248746699_248746696 248746696_3683319253 3683319253_248746690 248746690_5257188983 5257188983_5257188984 5257188984_681284986 681284986_681284972 681284972_241807182 241807182_241807186 241807186_3146808068 3146808068_3146808066 3146808066_370750440 370750440_2358053593 2358053593_241807198 241807198_2358053584 2358053584_2358053588 2358053588_370750529 370750529_370750442 370750442_2358053628 2358053628_2358053632 2358053632_370752533 370752533_2324385464 2324385464_370749842 370749842_370750304 370750304_2324385475 2324385475_2324385471 2324385471_370750291 370750291_2324385463 2324385463_370750290 370750290_547586437 547586437_547586436 547586436_3146808063 3146808063_370749246 370749246_241807184 241807184_1879021170 1879021170_278912971 278912971_650269488 650269488_650272180 650272180_650269460 650269460_650269967 650269967_650269965 650269965_650269351 650269351_650271181 650271181_650270799 650270799_650269226 650269226_5276517410 5276517410_1879021160 1879021160_1449297305 1449297305_650267483 650267483_650267588 650267588_650282682 650282682_583242779 583242779_650285164 650285164_650285170 650285170_580890024 580890024_1449431578 1449431578_1449431594 1449431594_1449431465 1449431465_4148228278 4148228278_4148228277 4148228277_1449431467 1449431467_1449431331 1449431331_4746122983 4746122983_4746121968 4746121968_3597715833 3597715833_2279153653 2279153653_1449431539 1449431539_2189497226 2189497226_2189497232 2189497232_4544561903 4544561903_4544561902 4544561902_4544561900 4544561900_2189497200 2189497200_4544561901 4544561901_3191033052 3191033052_2187986713 2187986713_2187986709 2187986709_2187983888 2187983888_2187983874 2187983874_2187983887 2187983887_3367904401 3367904401_589402277 589402277_589402268 589402268_595594347 595594347_589402311 589402311_26034670 26034670_3367904413 3367904413_247018098 247018098_247008046 247008046_247008062 247008062_247008053 247008053_247012072 247012072_247010162 247010162_247007089 247007089_1985557963 1985557963_2094319858 2094319858_2291073964 2291073964_2181268830 2181268830_2181275335 2181275335_2181275340 2181275340_3367904414 3367904414_2841675052 2841675052_2181275337 2181275337_2181275331 2181275331_2841675059 2841675059_2383211191 2383211191_2383211194 2383211194_2383211198 2383211198_2383211199 2383211199_2383211200 2383211200_3367904421 3367904421_2841675061 2841675061_2181275329 2181275329_2181275330 2181275330_2190483587 2190483587_2291073976 2291073976_4326586185 4326586185_4326586186 4326586186_2291073977 2291073977_2291073980 2291073980_2291073983 2291073983_2291073984 2291073984_2291073986 2291073986_2291073989 2291073989_2291073990 2291073990_2291073991 2291073991_3543024080 3543024080_2189145409 2189145409_3306876671 3306876671_3306876672 3306876672_3306876673 3306876673_3306876674 3306876674_3306876675 3306876675_4952477281 4952477281_3306876676 3306876676_3306876677 3306876677_2266563662 2266563662_3306876678 3306876678_2266563642 2266563642_2266563651 2266563651_2266563639 2266563639_259616751 259616751_30942994 30942994_289602599 289602599_289602608 289602608_332544910 332544910_3394738567 3394738567_332544858 332544858_332544866 332544866_3394730431 3394730431_3394730433 3394730433_3394730432 3394730432_3215192051 3215192051_387153101 387153101_767729190 767729190_3215192054 3215192054_4655129025 4655129025_127639607 127639607_387153102 387153102_305106865 305106865_3970811103 3970811103_305106971 305106971_296027680 296027680_1132070481 1132070481_296027697 296027697_26680093 26680093_1132070489 1132070489_1132070467 1132070467_26680091 26680091_1132070442 1132070442_1132070468 1132070468_26680090 26680090_3313036364 3313036364_26680178 26680178_1132070472 1132070472_26680177 26680177_1132070487 1132070487_1132070443 1132070443_1132070451 1132070451_1132070465 1132070465_26680084 26680084_1132070452 1132070452_571460260 571460260_306961201 306961201_571460262 571460262_560997595 560997595_306961195 306961195_306961188 306961188_400753614 400753614_41667993 41667993_290048317 290048317_41667991 41667991_1224872741 1224872741_304710871 304710871_304710870 304710870_3285633579 3285633579_5320613467 5320613467_5322615232 5322615232_76459258 76459258_4415760632 4415760632_3285633576 3285633576_2172718107 2172718107_76459296 76459296_3285623814 3285623814_373646060 373646060_373645976 373645976_373645935 373645935_3285622633 3285622633_373643824 373643824_2613010004 2613010004_2613010002 2613010002_373644846 373644846_3285622632 3285622632_583067729 583067729_3285622626 3285622626_75086429 75086429_202673222 202673222_202676493 202676493_1060265093 1060265093_4067315447 4067315447_75086428 75086428_2613010000 2613010000_2613009998 2613009998_4793613049 4793613049_75086426 75086426_295874707 295874707_75086425 75086425_3285622635 3285622635_3285622634 3285622634_202578382 202578382_202578380 202578380_295874836 295874836_3176128935 3176128935_202567088 202567088_122730503 122730503_2612992586 2612992586_4969348323 4969348323_1980953407 1980953407_249995135 249995135_122732708 122732708_3363087390 3363087390_3367881241 3367881241_3367881237 3367881237_249996882 249996882_249997007 249997007_3769827298 3769827298_250001736 250001736_250001977 250001977_3363089039 3363089039_4826319023 4826319023_3221150102 3221150102_3221150103 3221150103_3221150104 3221150104_3221150105 3221150105_3221150106 3221150106_3221150107 3221150107_3221150108 3221150108_3221150109 3221150109_3221150110 3221150110_1585522850 1585522850_1585522884 1585522884_5010902187 5010902187_1585522865 1585522865_1585522859 1585522859_1478663430 1478663430_1506635057 1506635057_1478663433 1478663433_1478663434 1478663434_663517493 663517493_663517492 663517492_663517488 663517488_273117204 273117204_273117202 273117202_623012185 623012185_273117199 273117199_469277407 469277407_273116555 273116555_273116556 273116556_623012502 623012502_273115988 273115988_273115987 273115987_273115435 273115435_273115433 273115433_273110060 273110060_3221168426 3221168426_2311300529 2311300529_75136358 75136358_2311300578 2311300578_75136359 75136359_2311300527 2311300527_2311300545 2311300545_75136360 75136360_2311300555 2311300555_3427731616 3427731616_75136362 75136362_2311300580 2311300580_2311300565 2311300565_2311300552 2311300552_2311300577 2311300577_2311300524 2311300524_1833142690 1833142690_4999981276 4999981276_1833142707 1833142707_1833142702 1833142702_1833142704 1833142704_1833142699 1833142699_36022342 36022342_3359255433 3359255433_3359255435 3359255435_2268148328 2268148328_320846340 320846340_320846339 320846339_320847097 320847097_320847243 320847243_4812708834 4812708834_320847421 320847421_320847617 320847617_320848271 320848271_320848544 320848544_320848304 320848304_320848306 320848306_320848394 320848394_3513727333 3513727333_320494658 320494658_878038469 878038469_320853417 320853417_320853418 320853418_5158248173 5158248173_321399522 321399522_321399521 321399521_321399528 321399528_321399527 321399527_321399695 321399695_320853725 320853725_321399698 321399698_320853820 320853820_5158248175 5158248175_320853819 320853819_320853818 320853818_5158248174 5158248174_320853817 320853817_5158305356 5158305356_250291418 250291418_320852504 320852504_370708114 370708114_370708264 370708264_370708343 370708343_370708381 370708381_320852621 320852621_1833869065 1833869065_2612216102 2612216102_370708433 " id="route1" /><route edges="1928298965_313441047 313441047_313440696 313440696_313254247 313254247_313254248 313254248_313254135 313254135_313254237 313254237_313254107 313254107_313254089 313254089_313140253 313140253_313140004 313140004_313140309 313140309_313140381 313140381_313140108 313140108_673083764 673083764_313140107 313140107_313140045 313140045_313248462 313248462_21643809 21643809_313248453 313248453_462859358 462859358_462868395 462868395_311901574 311901574_310001311 310001311_3496672103 3496672103_311902363 311902363_310001304 310001304_309977100 309977100_2123710638 2123710638_2123710633 2123710633_370482123 370482123_2123710644 2123710644_370482115 370482115_311902564 311902564_309971281 309971281_309977202 309977202_309975324 309975324_309977265 309977265_1657066726 1657066726_309975092 309975092_309975064 309975064_1657066778 1657066778_5300049085 5300049085_5300049097 5300049097_5300049096 5300049096_5300049095 5300049095_5300049086 5300049086_5510190944 5510190944_5510190943 5510190943_5510190942 5510190942_5510190941 5510190941_2245788910 2245788910_29960342 29960342_304704449 304704449_309972751 309972751_2245577416 2245577416_304704443 304704443_2245788924 2245788924_304704442 304704442_304701242 304701242_2938998251 2938998251_2938998247 2938998247_2938998252 2938998252_2938998255 2938998255_2938998258 2938998258_2938998259 2938998259_304701239 304701239_304701372 304701372_304701389 304701389_304701320 304701320_304701219 304701219_936168909 936168909_304715731 304715731_304701113 304701113_304701069 304701069_304715909 304715909_4034618807 4034618807_304716478 304716478_4034618802 4034618802_304716406 304716406_30221049 30221049_518303948 518303948_304700886 304700886_518303983 518303983_518303945 518303945_518303960 518303960_518303982 518303982_304712582 304712582_518304372 518304372_304712581 304712581_518304370 518304370_518304261 518304261_518304225 518304225_577063512 577063512_304712522 304712522_2381255964 2381255964_4918356710 4918356710_251477159 251477159_2381255973 2381255973_2381255967 2381255967_2381255969 2381255969_2381255972 2381255972_3205504680 3205504680_2381255957 2381255957_214110546 214110546_2242878873 2242878873_2241810964 2241810964_214118034 214118034_2397152883 2397152883_214117984 214117984_1657117441 1657117441_1657117445 1657117445_2242869381 2242869381_214099039 214099039_1533481705 1533481705_214117760 214117760_30221048 30221048_277362814 277362814_4283908187 4283908187_2241696406 2241696406_277362811 277362811_1546958636 1546958636_1546958634 1546958634_2241696401 2241696401_2978801845 2978801845_2978801848 2978801848_2978801846 2978801846_2978801847 2978801847_277362808 277362808_723980903 723980903_277362807 277362807_277362806 277362806_4283908181 4283908181_30221043 30221043_4283908183 4283908183_277363029 277363029_3394892455 3394892455_610682598 610682598_2481930756 2481930756_610682568 610682568_1657117469 1657117469_610682578 610682578_1657117886 1657117886_610682590 610682590_2481930755 2481930755_2236727840 2236727840_250479836 250479836_250480609 250480609_250480641 250480641_30947985 30947985_250480649 250480649_30947983 30947983_705744124 705744124_250480655 250480655_2236727765 2236727765_2481930664 2481930664_2481930663 2481930663_2481930662 2481930662_2481930661 2481930661_2481930665 2481930665_2481930660 2481930660_2481930658 2481930658_2672365492 2672365492_2672365503 2672365503_250480662 250480662_315714849 315714849_332797046 332797046_332797387 332797387_332797375 332797375_332797302 332797302_4283908158 4283908158_224765801 224765801_129952492 129952492_355818807 355818807_129953571 129953571_1404234340 1404234340_1404234341 1404234341_1404234339 1404234339_1404234343 1404234343_420022673 420022673_420022666 420022666_2072458655 2072458655_1519390577 1519390577_248746627 248746627_1519390580 1519390580_412776176 412776176_248746700 248746700_248746701 248746701_248746699 248746699_248746698 248746698_356083796 356083796_746427962 746427962_248746626 248746626_746427966 746427966_30944133 30944133_241807452 241807452_1713449453 1713449453_2614472706 2614472706_660546024 660546024_660546021 660546021_241807180 241807180_5257181350 5257181350_5257181349 5257181349_525718