<edges><edge from="1928298965" id="1928298965_313441047" to="313441047" type="a" /><edge from="313441047" id="313441047_313440696" to="313440696" type="a" /><edge from="313440696" id="313440696_313254247" to="313254247" type="a" /><edge from="313254247" id="313254247_313254248" to="313254248" type="a" /><edge from="313254248" id="313254248_313254135" to="313254135" type="a" /><edge from="313254135" id="313254135_313254237" to="313254237" type="a" /><edge from="313254237" id="313254237_313254107" to="313254107" type="a" /><edge from="313254107" id="313254107_313254089" to="313254089" type="a" /><edge from="313254089" id="313254089_313140253" to="313140253" type="a" /><edge from="313140253" id="313140253_313140004" to="313140004" type="a" /><edge from="313140004" id="313140004_313140309" to="313140309" type="a" /><edge from="313140309" id="313140309_313140381" to="313140381" type="a" /><edge from="313140381" id="313140381_313140108" to="313140108" type="a" /><edge from="313140108" id="313140108_670001388" to="670001388" type="a" /><edge from="670001388" id="670001388_1622867514" to="1622867514" type="a" /><edge from="1622867514" id="1622867514_1622867512" to="1622867512" type="a" /><edge from="1622867512" id="1622867512_1622867510" to="1622867510" type="a" /><edge from="1622867510" id="1622867510_1622867508" to="1622867508" type="a" /><edge from="1622867508" id="1622867508_1622867506" to="1622867506" type="a" /><edge from="1622867506" id="1622867506_1622867488" to="1622867488" type="a" /><edge from="1622867488" id="1622867488_670001389" to="670001389" type="a" /><edge from="670001389" id="670001389_673083756" to="673083756" type="a" /><edge from="673083756" id="673083756_313249065" to="313249065" type="a" /><edge from="313249065" id="313249065_310001363" to="310001363" type="a" /><edge from="310001363" id="310001363_5315879310" to="5315879310" type="a" /><edge from="5315879310" id="5315879310_310001364" to="310001364" type="a" /><edge from="310001364" id="310001364_2425472484" to="2425472484" type="a" /><edge from="2425472484" id="2425472484_2425472486" to="2425472486" type="a" /><edge from="2425472486" id="2425472486_2425472481" to="2425472481" type="a" /><edge from="2425472481" id="2425472481_2425472479" to="2425472479" type="a" /><edge from="2425472479" id="2425472479_310001365" to="310001365" type="a" /><edge from="310001365" id="310001365_310001366" to="310001366" type="a" /><edge from="310001366" id="310001366_310001082" to="310001082" type="a" /><edge from="310001082" id="310001082_310001084" to="310001084" type="a" /><edge from="310001084" id="310001084_470768105" to="470768105" type="a" /><edge from="470768105" id="470768105_4679488612" to="4679488612" type="a" /><edge from="4679488612" id="4679488612_4679488610" to="4679488610" type="a" /><edge from="4679488610" id="4679488610_4679488618" to="4679488618" type="a" /><edge from="4679488618" id="4679488618_1488092594" to="1488092594" type="a" /><edge from="1488092594" id="1488092594_277369834" to="277369834" type="a" /><edge from="277369834" id="277369834_1488092590" to="1488092590" type="a" /><edge from="1488092590" id="1488092590_277369882" to="277369882" type="a" /><edge from="277369882" id="277369882_4204671720" to="4204671720" type="a" /><edge from="4204671720" id="4204671720_127388698" to="127388698" type="a" /><edge from="127388698" id="127388698_4204671719" to="4204671719" type="a" /><edge from="4204671719" id="4204671719_277369881" to="277369881" type="a" /><edge from="277369881" id="277369881_604124876" to="604124876" type="a" /><edge from="604124876" id="604124876_1488092578" to="1488092578" type="a" /><edge from="1488092578" id="1488092578_4204671692" to="4204671692" type="a" /><edge from="4204671692" id="4204671692_277369879" to="277369879" type="a" /><edge from="277369879" id="277369879_277369878" to="277369878" type="a" /><edge from="277369878" id="277369878_277369877" to="277369877" type="a" /><edge from="277369877" id="277369877_4204671721" to="4204671721" type="a" /><edge from="4204671721" id="4204671721_1488046391" to="1488046391" type="a" /><edge from="1488046391" id="1488046391_1488046410" to="1488046410" type="a" /><edge from="1488046410" id="1488046410_2247591096" to="2247591096" type="a" /><edge from="2247591096" id="2247591096_127390268" to="127390268" type="a" /><edge from="127390268" id="127390268_2247672420" to="2247672420" type="a" /><edge from="2247672420" id="2247672420_4679496898" to="4679496898" type="a" /><edge from="4679496898" id="4679496898_2247591101" to="2247591101" type="a" /><edge from="2247591101" id="2247591101_2247672417" to="2247672417" type="a" /><edge from="2247672417" id="2247672417_2247591117" to="2247591117" type="a" /><edge from="2247591117" id="2247591117_876910906" to="876910906" type="a" /><edge from="876910906" id="876910906_309984697" to="309984697" type="a" /><edge from="309984697" id="309984697_21643741" to="21643741" type="a" /><edge from="21643741" id="21643741_309989573" to="309989573" type="a" /><edge from="309989573" id="309989573_309989084" to="309989084" type="a" /><edge from="309989084" id="309989084_1657067339" to="1657067339" type="a" /><edge from="1657067339" id="1657067339_309988225" to="309988225" type="a" /><edge from="309988225" id="309988225_2247662465" to="2247662465" type="a" /><edge from="2247662465" id="2247662465_1657067341" to="1657067341" type="a" /><edge from="1657067341" id="1657067341_309971077" to="309971077" type="a" /><edge from="309971077" id="309971077_309985025" to="309985025" type="a" /><edge from="309985025" id="309985025_309970358" to="309970358" type="a" /><edge from="309970358" id="309970358_309970191" to="309970191" type="a" /><edge from="309970191" id="309970191_2080740198" to="2080740198" type="a" /><edge from="2080740198" id="2080740198_3207124707" to="3207124707" type="a" /><edge from="3207124707" id="3207124707_309969854" to="309969854" type="a" /><edge from="309969854" id="309969854_309981741" to="309981741" type="a" /><edge from="309981741" id="309981741_309969575" to="309969575" type="a" /><edge from="309969575" id="309969575_309981391" to="309981391" type="a" /><edge from="309981391" id="309981391_3224362682" to="3224362682" type="a" /><edge from="3224362682" id="3224362682_4204671698" to="4204671698" type="a" /><edge from="4204671698" id="4204671698_309969280" to="309969280" type="a" /><edge from="309969280" id="309969280_309979013" to="309979013" type="a" /><edge from="309979013" id="309979013_4790942634" to="4790942634" type="a" /><edge from="4790942634" id="4790942634_309979105" to="309979105" type="a" /><edge from="309979105" id="309979105_4169720285" to="4169720285" type="a" /><edge from="4169720285" id="4169720285_1487967728" to="1487967728" type="a" /><edge from="1487967728" id="1487967728_1487967726" to="1487967726" type="a" /><edge from="1487967726" id="1487967726_1487967725" to="1487967725" type="a" /><edge from="1487967725" id="1487967725_4034623523" to="4034623523" type="a" /><edge from="4034623523" id="4034623523_4034623524" to="4034623524" type="a" /><edge from="4034623524" id="4034623524_4034623525" to="4034623525" type="a" /><edge from="4034623525" id="4034623525_4034623526" to="4034623526" type="a" /><edge from="4034623526" id="4034623526_1522566225" to="1522566225" type="a" /><edge from="1522566225" id="1522566225_1522566189" to="1522566189" type="a" /><edge from="1522566189" id="1522566189_1522566380" to="1522566380" type="a" /><edge from="1522566380" id="1522566380_1522566382" to="1522566382" type="a" /><edge from="1522566382" id="1522566382_1522566389" to="1522566389" type="a" /><edge from="1522566389" id="1522566389_1522566359" to="1522566359" type="a" /><edge from="1522566359" id="1522566359_1522834394" to="1522834394" type="a" /><edge from="1522834394" id="1522834394_1522834395" to="1522834395" type="a" /><edge from="1522834395" id="1522834395_1522834446" to="1522834446" type="a" /><edge from="1522834446" id="1522834446_1522834429" to="1522834429" type="a" /><edge from="1522834429" id="1522834429_1522834316" to="1522834316" type="a" /><edge from="1522834316" id="1522834316_1522834336" to="1522834336" type="a" /><edge from="1522834336" id="1522834336_1522834355" to="1522834355" type="a" /><edge from="1522834355" id="1522834355_31477188" to="31477188" type="a" /><edge from="31477188" id="31477188_31477187" to="31477187" type="a" /><edge from="31477187" id="31477187_31477186" to="31477186" type="a" /><edge from="31477186" id="31477186_2940375840" to="2940375840" type="a" /><edge from="2940375840" id="2940375840_370477432" to="370477432" type="a" /><edge from="370477432" id="370477432_214122372" to="214122372" type="a" /><edge from="214122372" id="214122372_370477489" to="370477489" type="a" /><edge from="370477489" id="370477489_31477185" to="31477185" type="a" /><edge from="31477185" id="31477185_31477184" to="31477184" type="a" /><edge from="31477184" id="31477184_2940375839" to="2940375839" type="a" /><edge from="2940375839" id="2940375839_370477495" to="370477495" type="a" /><edge from="370477495" id="370477495_214122180" to="214122180" type="a" /><edge from="214122180" id="214122180_214092481" to="214092481" type="a" /><edge from="214092481" id="214092481_541122878" to="541122878" type="a" /><edge from="541122878" id="541122878_31477183" to="31477183" type="a" /><edge from="31477183" id="31477183_5546311686" to="5546311686" type="a" /><edge from="5546311686" id="5546311686_740374973" to="740374973" type="a" /><edge from="740374973" id="740374973_114268737" to="114268737" type="a" /><edge from="114268737" id="114268737_299026732" to="299026732" type="a" /><edge from="299026732" id="299026732_2567155992" to="2567155992" type="a" /><edge from="2567155992" id="2567155992_541122843" to="541122843" type="a" /><edge from="541122843" id="541122843_608962184" to="608962184" type="a" /><edge from="608962184" id="608962184_608962183" to="608962183" type="a" /><edge from="608962183" id="608962183_608962182" to="608962182" type="a" /><edge from="608962182" id="608962182_608962181" to="608962181" type="a" /><edge from="608962181" id="608962181_608962176" to="608962176" type="a" /><edge from="608962176" id="608962176_2621587163" to="2621587163" type="a" /><edge from="2621587163" id="2621587163_2621587165" to="2621587165" type="a" /><edge from="2621587165" id="2621587165_608962168" to="608962168" type="a" /><edge from="608962168" id="608962168_608962167" to="608962167" type="a" /><edge from="608962167" id="608962167_561538826" to="561538826" type="a" /><edge from="561538826" id="561538826_561538825" to="561538825" type="a" /><edge from="561538825" id="561538825_2621587173" to="2621587173" type="a" /><edge from="2621587173" id="2621587173_561538971" to="561538971" type="a" /><edge from="561538971" id="561538971_561538970" to="561538970" type="a" /><edge from="561538970" id="561538970_277366890" to="277366890" type="a" /><edge from="277366890" id="277366890_277366891" to="277366891" type="a" /><edge from="277366891" id="277366891_561538974" to="561538974" type="a" /><edge from="561538974" id="561538974_561538848" to="561538848" type="a" /><edge from="561538848" id="561538848_561538860" to="561538860" type="a" /><edge from="561538860" id="561538860_561538859" to="561538859" type="a" /><edge from="561538859" id="561538859_561538858" to="561538858" type="a" /><edge from="561538858" id="561538858_561538857" to="561538857" type="a" /><edge from="561538857" id="561538857_561538850" to="561538850" type="a" /><edge from="561538850" id="561538850_561538849" to="561538849" type="a" /><edge from="561538849" id="561538849_5406797171" to="5406797171" type="a" /><edge from="5406797171" id="5406797171_1093410314" to="1093410314" type="a" /><edge from="1093410314" id="1093410314_305909619" to="305909619" type="a" /><edge from="305909619" id="305909619_305909618" to="305909618" type="a" /><edge from="305909618" id="305909618_305909616" to="305909616" type="a" /><edge from="305909616" id="305909616_305909615" to="305909615" type="a" /><edge from="305909615" id="305909615_305909614" to="305909614" type="a" /><edge from="305909614" id="305909614_561538867" to="561538867" type="a" /><edge from="561538867" id="561538867_561538869" to="561538869" type="a" /><edge from="561538869" id="561538869_561538870" to="561538870" type="a" /><edge from="561538870" id="561538870_1093410310" to="1093410310" type="a" /><edge from="1093410310" id="1093410310_1093410311" to="1093410311" type="a" /><edge from="1093410311" id="1093410311_1093410312" to="1093410312" type="a" /><edge from="1093410312" id="1093410312_4698484056" to="4698484056" type="a" /><edge from="4698484056" id="4698484056_561538868" to="561538868" type="a" /><edge from="561538868" id="561538868_2384157684" to="2384157684" type="a" /><edge from="2384157684" id="2384157684_906234086" to="906234086" type="a" /><edge from="906234086" id="906234086_906234097" to="906234097" type="a" /><edge from="906234097" id="906234097_906234089" to="906234089" type="a" /><edge from="906234089" id="906234089_906234087" to="906234087" type="a" /><edge from="906234087" id="906234087_1192149947" to="1192149947" type="a" /><edge from="1192149947" id="1192149947_906234095" to="906234095" type="a" /><edge from="906234095" id="906234095_3067843936" to="3067843936" type="a" /><edge from="3067843936" id="3067843936_827113739" to="827113739" type="a" /><edge from="827113739" id="827113739_128874949" to="128874949" type="a" /><edge from="128874949" id="128874949_4698523258" to="4698523258" type="a" /><edge from="4698523258" id="4698523258_128874985" to="128874985" type="a" /><edge from="128874985" id="128874985_305912836" to="305912836" type="a" /><edge from="305912836" id="305912836_2006034699" to="2006034699" type="a" /><edge from="2006034699" id="2006034699_2006038538" to="2006038538" type="a" /><edge from="2006038538" id="2006038538_2006034703" to="2006034703" type="a" /><edge from="2006034703" id="2006034703_2006034701" to="2006034701" type="a" /><edge from="2006034701" id="2006034701_305912839" to="305912839" type="a" /><edge from="305912839" id="305912839_128874960" to="128874960" type="a" /><edge from="128874960" id="128874960_305913668" to="305913668" type="a" /><edge from="305913668" id="305913668_3065030523" to="3065030523" type="a" /><edge from="3065030523" id="3065030523_305913665" to="305913665" type="a" /><edge from="305913665" id="305913665_128882436" to="128882436" type="a" /><edge from="128882436" id="128882436_305912824" to="305912824" type="a" /><edge from="305912824" id="305912824_2176972919" to="2176972919" type="a" /><edge from="2176972919" id="2176972919_305912820" to="305912820" type="a" /><edge from="305912820" id="305912820_128882501" to="128882501" type="a" /><edge from="128882501" id="128882501_129279518" to="129279518" type="a" /><edge from="129279518" id="129279518_1033063213" to="1033063213" type="a" /><edge from="1033063213" id="1033063213_1521014627" to="1521014627" type="a" /><edge from="1521014627" id="1521014627_129279422" to="129279422" type="a" /><edge from="129279422" id="129279422_31477171" to="31477171" type="a" /><edge from="31477171" id="31477171_1519471011" to="1519471011" type="a" /><edge from="1519471011" id="1519471011_355817578" to="355817578" type="a" /><edge from="355817578" id="355817578_355817533" to="355817533" type="a" /><edge from="355817533" id="355817533_2684469926" to="2684469926" type="a" /><edge from="2684469926" id="2684469926_1965865394" to="1965865394" type="a" /><edge from="1965865394" id="1965865394_266727401" to="266727401" type="a" /><edge from="266727401" id="266727401_1519470963" to="1519470963" type="a" /><edge from="1519470963" id="1519470963_1965865396" to="1965865396" type="a" /><edge from="1965865396" id="1965865396_1965865389" to="1965865389" type="a" /><edge from="1965865389" id="1965865389_1965865392" to="1965865392" type="a" /><edge from="1965865392" id="1965865392_370959804" to="370959804" type="a" /><edge from="370959804" id="370959804_151434803" to="151434803" type="a" /><edge from="151434803" id="151434803_1965865387" to="1965865387" type="a" /><edge from="1965865387" id="1965865387_151434830" to="151434830" type="a" /><edge from="151434830" id="151434830_3311863660" to="3311863660" type="a" /><edge from="3311863660" id="3311863660_2672588668" to="2672588668" type="a" /><edge from="2672588668" id="2672588668_810963146" to="810963146" type="a" /><edge from="810963146" id="810963146_384027031" to="384027031" type="a" /><edge from="384027031" id="384027031_3823791807" to="3823791807" type="a" /><edge from="3823791807" id="3823791807_493102375" to="493102375" type="a" /><edge from="493102375" id="493102375_384027591" to="384027591" type="a" /><edge from="384027591" id="384027591_493102372" to="493102372" type="a" /><edge from="493102372" id="493102372_384027122" to="384027122" type="a" /><edge from="384027122" id="384027122_493102370" to="493102370" type="a" /><edge from="493102370" id="493102370_493102368" to="493102368" type="a" /><edge from="493102368" id="493102368_384027590" to="384027590" type="a" /><edge from="384027590" id="384027590_493102365" to="493102365" type="a" /><edge from="493102365" id="493102365_384026989" to="384026989" type="a" /><edge from="384026989" id="384026989_151442490" to="151442490" type="a" /><edge from="151442490" id="151442490_233247071" to="233247071" type="a" /><edge from="233247071" id="233247071_401505827" to="401505827" type="a" /><edge from="401505827" id="401505827_2428769531" to="2428769531" type="a" /><edge from="2428769531" id="2428769531_2428766397" to="2428766397" type="a" /><edge from="2428766397" id="2428766397_233247050" to="233247050" type="a" /><edge from="233247050" id="233247050_233270770" to="233270770" type="a" /><edge from="233270770" id="233270770_385176258" to="385176258" type="a" /><edge from="385176258" id="385176258_385176790" to="385176790" type="a" /><edge from="385176790" id="385176790_233270786" to="233270786" type="a" /><edge from="233270786" id="233270786_2457712013" to="2457712013" type="a" /><edge from="2457712013" id="2457712013_233270800" to="233270800" type="a" /><edge from="233270800" id="233270800_233255206" to="233255206" type="a" /><edge from="233255206" id="233255206_1480081451" to="1480081451" type="a" /><edge from="1480081451" id="1480081451_233270841" to="233270841" type="a" /><edge from="233270841" id="233270841_597633378" to="597633378" type="a" /><edge from="597633378" id="597633378_233255272" to="233255272" type="a" /><edge from="233255272" id="233255272_361770719" to="361770719" type="a" /><edge from="361770719" id="361770719_361770535" to="361770535" type="a" /><edge from="361770535" id="361770535_361770819" to="361770819" type="a" /><edge from="361770819" id="361770819_361770537" to="361770537" type="a" /><edge from="361770537" id="361770537_233255310" to="233255310" type="a" /><edge from="233255310" id="233255310_615176178" to="615176178" type="a" /><edge from="615176178" id="615176178_615176175" to="615176175" type="a" /><edge from="615176175" id="615176175_615176166" to="615176166" type="a" /><edge from="615176166" id="615176166_233262762" to="233262762" type="a" /><edge from="233262762" id="233262762_302571121" to="302571121" type="a" /><edge from="302571121" id="302571121_683138398" to="683138398" type="a" /><edge from="683138398" id="683138398_418987991" to="418987991" type="a" /><edge from="418987991" id="418987991_302132742" to="302132742" type="a" /><edge from="302132742" id="302132742_580090245" to="580090245" type="a" /><edge from="580090245" id="580090245_4297530202" to="4297530202" type="a" /><edge from="4297530202" id="4297530202_233262696" to="233262696" type="a" /><edge from="233262696" id="233262696_233314946" to="233314946" type="a" /><edge from="233314946" id="233314946_233314999" to="233314999" type="a" /><edge from="233314999" id="233314999_243645169" to="243645169" type="a" /><edge from="243645169" id="243645169_233314776" to="233314776" type="a" /><edge from="233314776" id="233314776_2204643315" to="2204643315" type="a" /><edge from="2204643315" id="2204643315_364869016" to="364869016" type="a" /><edge from="364869016" id="364869016_233314797" to="233314797" type="a" /><edge from="233314797" id="233314797_233314893" to="233314893" type="a" /><edge from="233314893" id="233314893_364868868" to="364868868" type="a" /><edge from="364868868" id="364868868_233314914" to="233314914" type="a" /><edge from="233314914" id="233314914_233314833" to="233314833" type="a" /><edge from="233314833" id="233314833_233314809" to="233314809" type="a" /><edge from="233314809" id="233314809_4294474619" to="4294474619" type="a" /><edge from="4294474619" id="4294474619_1367589913" to="1367589913" type="a" /><edge from="1367589913" id="1367589913_4294474618" to="4294474618" type="a" /><edge from="4294474618" id="4294474618_1367589915" to="1367589915" type="a" /><edge from="1367589915" id="1367589915_1367589914" to="1367589914" type="a" /><edge from="1367589914" id="1367589914_395285982" to="395285982" type="a" /><edge from="395285982" id="395285982_767693486" to="767693486" type="a" /><edge from="767693486" id="767693486_767710271" to="767710271" type="a" /><edge from="767710271" id="767710271_501019000" to="501019000" type="a" /><edge from="501019000" id="501019000_501018995" to="501018995" type="a" /><edge from="501018995" id="501018995_767594705" to="767594705" type="a" /><edge from="767594705" id="767594705_767594704" to="767594704" type="a" /><edge from="767594704" id="767594704_767594703" to="767594703" type="a" /><edge from="767594703" id="767594703_371972632" to="371972632" type="a" /><edge from="371972632" id="371972632_493873197" to="493873197" type="a" /><edge from="493873197" id="493873197_493873198" to="493873198" type="a" /><edge from="493873198" id="493873198_566892220" to="566892220" type="a" /><edge from="566892220" id="566892220_493873180" to="493873180" type="a" /><edge from="493873180" id="493873180_767752593" to="767752593" type="a" /><edge from="767752593" id="767752593_371949823" to="371949823" type="a" /><edge from="371949823" id="371949823_767671823" to="767671823" type="a" /><edge from="767671823" id="767671823_767671820" to="767671820" type="a" /><edge from="767671820" id="767671820_34160610" to="34160610" type="a" /><edge from="34160610" id="34160610_767670317" to="767670317" type="a" /><edge from="767670317" id="767670317_3933098057" to="3933098057" type="a" /><edge from="3933098057" id="3933098057_2766300604" to="2766300604" type="a" /><edge from="2766300604" id="2766300604_34157905" to="34157905" type="a" /><edge from="34157905" id="34157905_3933095115" to="3933095115" type="a" /><edge from="3933095115" id="3933095115_319157897" to="319157897" type="a" /><edge from="319157897" id="319157897_30287325" to="30287325" type="a" /><edge from="30287325" id="30287325_30287324" to="30287324" type="a" /><edge from="30287324" id="30287324_319157174" to="319157174" type="a" /><edge from="319157174" id="319157174_1985551133" to="1985551133" type="a" /><edge from="1985551133" id="1985551133_3933094374" to="3933094374" type="a" /><edge from="3933094374" id="3933094374_2707985442" to="2707985442" type="a" /><edge from="2707985442" id="2707985442_1985551131" to="1985551131" type="a" /><edge from="1985551131" id="1985551131_319157894" to="319157894" type="a" /><edge from="319157894" id="319157894_291210712" to="291210712" type="a" /><edge from="291210712" id="291210712_3208518301" to="3208518301" type="a" /><edge from="3208518301" id="3208518301_291210708" to="291210708" type="a" /><edge from="291210708" id="291210708_317535760" to="317535760" type="a" /><edge from="317535760" id="317535760_1725216810" to="1725216810" type="a" /><edge from="1725216810" id="1725216810_291210792" to="291210792" type="a" /><edge from="291210792" id="291210792_3208518289" to="3208518289" type="a" /><edge from="3208518289" id="3208518289_33675682" to="33675682" type="a" /><edge from="33675682" id="33675682_3933086388" to="3933086388" type="a" /><edge from="3933086388" id="3933086388_317535746" to="317535746" type="a" /><edge from="317535746" id="317535746_1492410147" to="1492410147" type="a" /><edge from="1492410147" id="1492410147_1492410163" to="1492410163" type="a" /><edge from="1492410163" id="1492410163_1492410198" to="1492410198" type="a" /><edge from="1492410198" id="1492410198_1492410214" to="1492410214" type="a" /><edge from="1492410214" id="1492410214_3933086393" to="3933086393" type="a" /><edge from="3933086393" id="3933086393_4005305751" to="4005305751" type="a" /><edge from="4005305751" id="4005305751_775942450" to="775942450" type="a" /><edge from="775942450" id="775942450_1900213541" to="1900213541" type="a" /><edge from="1900213541" id="1900213541_774547223" to="774547223" type="a" /><edge from="774547223" id="774547223_777771693" to="777771693" type="a" /><edge from="777771693" id="777771693_1725216852" to="1725216852" type="a" /><edge from="1725216852" id="1725216852_774546374" to="774546374" type="a" /><edge from="774546374" id="774546374_775941673" to="775941673" type="a" /><edge from="775941673" id="775941673_774546373" to="774546373" type="a" /><edge from="774546373" id="774546373_3933094364" to="3933094364" type="a" /><edge from="3933094364" id="3933094364_775933297" to="775933297" type="a" /><edge from="775933297" id="775933297_775946111" to="775946111" type="a" /><edge from="775946111" id="775946111_775945930" to="775945930" type="a" /><edge from="775945930" id="775945930_775933295" to="775933295" type="a" /><edge from="775933295" id="775933295_775933250" to="775933250" type="a" /><edge from="775933250" id="775933250_775933327" to="775933327" type="a" /><edge from="775933327" id="775933327_775933377" to="775933377" type="a" /><edge from="775933377" id="775933377_775933376" to="775933376" type="a" /><edge from="775933376" id="775933376_774545099" to="774545099" type="a" /><edge from="774545099" id="774545099_2383215095" to="2383215095" type="a" /><edge from="2383215095" id="2383215095_774545122" to="774545122" type="a" /><edge from="774545122" id="774545122_777759693" to="777759693" type="a" /><edge from="777759693" id="777759693_777696327" to="777696327" type="a" /><edge from="777696327" id="777696327_777697599" to="777697599" type="a" /><edge from="777697599" id="777697599_777697592" to="777697592" type="a" /><edge from="777697592" id="777697592_777697587" to="777697587" type="a" /><edge from="777697587" id="777697587_777703071" to="777703071" type="a" /><edge from="777703071" id="777703071_777743666" to="777743666" type="a" /><edge from="777743666" id="777743666_777703067" to="777703067" type="a" /><edge from="777703067" id="777703067_777746939" to="777746939" type="a" /><edge from="777746939" id="777746939_777710193" to="777710193" type="a" /><edge from="777710193" id="777710193_777721838" to="777721838" type="a" /><edge from="777721838" id="777721838_777721819" to="777721819" type="a" /><edge from="777721819" id="777721819_777721760" to="777721760" type="a" /><edge from="777721760" id="777721760_777721749" to="777721749" type="a" /><edge from="777721749" id="777721749_777799136" to="777799136" type="a" /><edge from="777799136" id="777799136_777788921" to="777788921" type="a" /><edge from="777788921" id="777788921_777788917" to="777788917" type="a" /><edge from="777788917" id="777788917_317369542" to="317369542" type="a" /><edge from="317369542" id="317369542_317369554" to="317369554" type="a" /><edge from="317369554" id="317369554_317369597" to="317369597" type="a" /><edge from="317369597" id="317369597_703557084" to="703557084" type="a" /><edge from="703557084" id="703557084_777774421" to="777774421" type="a" /><edge from="777774421" id="777774421_777788328" to="777788328" type="a" /><edge from="777788328" id="777788328_26034627" to="26034627" type="a" /><edge from="26034627" id="26034627_3215106497" to="3215106497" type="a" /><edge from="3215106497" id="3215106497_3215191983" to="3215191983" type="a" /><edge from="3215191983" id="3215191983_35354783" to="35354783" type="a" /><edge from="35354783" id="35354783_572041912" to="572041912" type="a" /><edge from="572041912" id="572041912_259616740" to="259616740" type="a" /><edge from="259616740" id="259616740_3394768954" to="3394768954" type="a" /><edge from="3394768954" id="3394768954_767584756" to="767584756" type="a" /><edge from="767584756" id="767584756_387153089" to="387153089" type="a" /><edge from="387153089" id="387153089_767584755" to="767584755" type="a" /><edge from="767584755" id="767584755_30942992" to="30942992" type="a" /><edge from="30942992" id="30942992_3215192005" to="3215192005" type="a" /><edge from="3215192005" id="3215192005_3215192008" to="3215192008" type="a" /><edge from="3215192008" id="3215192008_3215192022" to="3215192022" type="a" /><edge from="3215192022" id="3215192022_3215192021" to="3215192021" type="a" /><edge from="3215192021" id="3215192021_332549400" to="332549400" type="a" /><edge from="332549400" id="332549400_3215192040" to="3215192040" type="a" /><edge from="3215192040" id="3215192040_332549398" to="332549398" type="a" /><edge from="332549398" id="332549398_4551628270" to="4551628270" type="a" /><edge from="4551628270" id="4551628270_306904038" to="306904038" type="a" /><edge from="306904038" id="306904038_332549397" to="332549397" type="a" /><edge from="332549397" id="332549397_387152995" to="387152995" type="a" /><edge from="387152995" id="387152995_3394781929" to="3394781929" type="a" /><edge from="3394781929" id="3394781929_3218227004" to="3218227004" type="a" /><edge from="3218227004" id="3218227004_3218227002" to="3218227002" type="a" /><edge from="3218227002" id="3218227002_3218227000" to="3218227000" type="a" /><edge from="3218227000" id="3218227000_3218226998" to="3218226998" type="a" /><edge from="3218226998" id="3218226998_387152924" to="387152924" type="a" /><edge from="387152924" id="387152924_332546101" to="332546101" type="a" /><edge from="332546101" id="332546101_339478