<routes><vType accel="0.7" decel="6.5" id="Car0" length="20.5" maxSpeed="99" sigma="0.0" /><vType accel="1.3" decel="4.8" id="Car1" length="15.3" maxSpeed="113" sigma="0.0" /><vType accel="2.0" decel="7.3" id="Car2" length="11.3" maxSpeed="78" sigma="0.0" /><vType accel="2.4" decel="4.9" id="Car3" length="6.3" maxSpeed="120" sigma="0.0" /><vType accel="0.8" decel="6.9" id="Car4" length="21.0" maxSpeed="80" sigma="0.0" /><vType accel="1.4" decel="4.9" id="Car5" length="7.5" maxSpeed="66" sigma="0.0" /><vType accel="0.6" decel="6.6" id="Car6" length="20.0" maxSpeed="85" sigma="0.0" /><route edges="1928298965_313441110 313441110_313440691 313440691_313441737 313441737_313254240 313254240_313139758 313139758_1928315581 1928315581_1928315592 1928315592_1928315579 1928315579_1928315589 1928315589_1928315553 1928315553_1928315555 1928315555_1928315558 1928315558_1928315573 1928315573_1928315552 1928315552_1928315586 1928315586_313139789 313139789_313254109 313254109_313139805 313139805_5045893640 5045893640_2245992484 2245992484_313139810 313139810_314457753 314457753_3494863649 3494863649_314461469 314461469_313139819 313139819_5045891610 5045891610_314456863 314456863_313139910 313139910_314456316 314456316_313139857 313139857_3494863650 3494863650_313139953 313139953_2381887355 2381887355_462844528 462844528_304705564 304705564_462850492 462850492_304705458 304705458_2245992601 2245992601_1928268659 1928268659_1928268655 1928268655_1928268665 1928268665_304705474 304705474_304704695 304704695_4142788514 4142788514_304704894 304704894_304705282 304705282_1328266774 1328266774_304704958 304704958_304705270 304705270_304704851 304704851_304705226 304705226_304705239 304705239_304705238 304705238_304705111 304705111_304704775 304704775_304704626 304704626_304704678 304704678_304704624 304704624_304704448 304704448_1800095332 1800095332_1800095333 1800095333_304718042 304718042_30948256 30948256_304701321 304701321_304715532 304715532_304701167 304701167_304715731 304715731_304701113 304701113_304701069 304701069_304715909 304715909_304715908 304715908_598491784 598491784_598491783 598491783_304715907 304715907_304715905 304715905_304716663 304716663_304715900 304715900_3500422088 3500422088_304715956 304715956_304712583 304712583_518303982 518303982_304712582 304712582_518304372 518304372_304712581 304712581_518304370 518304370_518304261 518304261_518304225 518304225_577063512 577063512_304712522 304712522_2381255964 2381255964_4918356710 4918356710_4918356709 4918356709_4169720804 4169720804_2381255958 2381255958_2381255971 2381255971_2381255957 2381255957_214110546 214110546_2242878873 2242878873_2241810964 2241810964_214118034 214118034_2397152883 2397152883_2397152889 2397152889_2397152887 2397152887_2397152885 2397152885_1533600401 1533600401_1533481707 1533481707_1533481701 1533481701_4283908892 4283908892_214117760 214117760_30221048 30221048_277362814 277362814_4283908187 4283908187_2241696406 2241696406_277362811 277362811_1546958636 1546958636_1546958634 1546958634_2241696401 2241696401_2978801845 2978801845_2978801848 2978801848_2978801846 2978801846_2978801847 2978801847_277362808 277362808_723980903 723980903_277362807 277362807_277362806 277362806_723980902 723980902_3394892452 3394892452_277362804 277362804_723976949 723976949_4283908179 4283908179_277362770 277362770_30948162 30948162_30948116 30948116_2013560660 2013560660_250479836 250479836_2236727840 2236727840_2481930755 2481930755_2481930754 2481930754_250480602 250480602_250480593 250480593_250480014 250480014_30947984 30947984_5167159984 5167159984_443302591 443302591_248746632 248746632_2692003116 2692003116_2692003115 2692003115_443299470 443299470_248746631 248746631_2072458656 2072458656_4315827362 4315827362_30947902 30947902_393114984 393114984_4283908176 4283908176_319617898 319617898_4283908171 4283908171_2239405641 2239405641_2239405642 2239405642_4283908169 4283908169_4283908167 4283908167_4283908165 4283908165_30947901 30947901_224765801 224765801_129952492 129952492_355818807 355818807_129953571 129953571_1404234340 1404234340_1404234341 1404234341_1404234339 1404234339_1404234343 1404234343_420022673 420022673_420022666 420022666_2072458655 2072458655_1519390577 1519390577_248746627 248746627_1519390567 1519390567_248746724 248746724_412776174 412776174_248746701 248746701_248746699 248746699_248746696 248746696_3683319253 3683319253_248746690 248746690_5257188983 5257188983_5257188984 5257188984_681284986 681284986_681284972 681284972_241807182 241807182_547587095 547587095_3144992709 3144992709_5257193652 5257193652_3144992712 3144992712_241807196 241807196_5257193653 5257193653_370750701 370750701_2358053045 2358053045_2358053043 2358053043_370750708 370750708_2358053039 2358053039_370750526 370750526_547586920 547586920_370752343 370752343_547568767 547568767_370752408 370752408_3146808071 3146808071_370749848 370749848_443298667 443298667_370751614 370751614_443298666 443298666_443298665 443298665_241807394 241807394_443298664 443298664_370751648 370751648_2696446375 2696446375_416832108 416832108_3146808061 3146808061_3146808070 3146808070_370749284 370749284_370749292 370749292_417273053 417273053_241807177 241807177_3462475906 3462475906_3146808099 3146808099_233578139 233578139_3146808100 3146808100_3146808102 3146808102_416817425 416817425_269335114 269335114_3419354759 3419354759_416817424 416817424_4248528827 4248528827_269335261 269335261_4283908127 4283908127_304893435 304893435_4283908125 4283908125_269335260 269335260_30945575 30945575_3419339847 3419339847_3937111753 3937111753_224750232 224750232_30287465 30287465_4283908117 4283908117_4283908116 4283908116_3419344105 3419344105_2189377523 2189377523_30945324 30945324_233274930 233274930_2096319043 2096319043_477079437 477079437_477079436 477079436_3937113664 3937113664_767665017 767665017_767587081 767587081_2384091376 2384091376_2384091375 2384091375_767584894 767584894_767661756 767661756_4000075641 4000075641_767582212 767582212_3937111755 3937111755_3933095114 3933095114_501027471 501027471_501027474 501027474_767584716 767584716_277089909 277089909_277089910 277089910_1691676483 1691676483_3933095111 3933095111_2181275336 2181275336_2841675040 2841675040_767584383 767584383_2181275344 2181275344_3367904416 3367904416_2841675044 2841675044_2181275328 2181275328_2841675047 2841675047_2181275335 2181275335_2181275340 2181275340_3367904414 3367904414_2841675052 2841675052_2841675051 2841675051_2291073966 2291073966_1985347051 1985347051_1725216941 1725216941_1900234217 1900234217_1725216922 1725216922_1725216871 1725216871_33675682 33675682_3933086388 3933086388_317535746 317535746_1492410147 1492410147_1492410163 1492410163_1492410198 1492410198_1492410214 1492410214_3933086393 3933086393_4005305751 4005305751_775942450 775942450_1900213541 1900213541_774547223 774547223_777771693 777771693_1725216852 1725216852_774546374 774546374_3933094360 3933094360_4876123727 4876123727_774546433 774546433_775933297 775933297_775946111 775946111_775945930 775945930_775933295 775933295_775933250 775933250_1895925155 1895925155_2991935464 2991935464_1691676440 1691676440_711359068 711359068_711369366 711369366_711358863 711358863_711358867 711358867_708717121 708717121_2991935465 2991935465_708717112 708717112_777753012 777753012_777753011 777753011_777745518 777745518_777753008 777753008_777753006 777753006_777793471 777793471_3215191979 3215191979_777793465 777793465_777793457 777793457_3215191973 3215191973_3215191976 3215191976_777793450 777793450_3306876681 3306876681_777790169 777790169_777790992 777790992_3306876680 3306876680_2266563663 2266563663_3306876678 3306876678_2266563642 2266563642_2266563651 2266563651_2266563639 2266563639_259616751 259616751_3215106490 3215106490_259616744 259616744_387153097 387153097_259616740 259616740_3394768954 3394768954_767584756 767584756_387153089 387153089_767584755 767584755_1686695079 1686695079_387153023 387153023_387153031 387153031_1686695075 1686695075_702463816 702463816_702461105 702461105_4735922441 4735922441_259617268 259617268_3394779112 3394779112_702460959 702460959_702460958 702460958_702460957 702460957_702460956 702460956_702460955 702460955_702460954 702460954_702460953 702460953_780982655 780982655_780982646 780982646_780979435 780979435_702465424 702465424_702465421 702465421_702459929 702459929_287629445 287629445_702459892 702459892_702459975 702459975_702459973 702459973_43251976 43251976_287629431 287629431_702478647 702478647_287629433 287629433_287629437 287629437_572005110 572005110_3094966842 3094966842_572004507 572004507_287630668 287630668_287630670 287630670_287630661 287630661_387152942 387152942_702451433 702451433_3394764077 3394764077_702478083 702478083_702451442 702451442_702451772 702451772_287630734 287630734_702450201 702450201_4633573547 4633573547_4633573546 4633573546_287630739 287630739_4633573544 4633573544_702378611 702378611_332544824 332544824_332543902 332543902_30942256 30942256_3394781451 3394781451_702354049 702354049_702354038 702354038_702354305 702354305_702354312 702354312_702354310 702354310_387153022 387153022_702363502 702363502_305106978 305106978_702363737 702363737_702376281 702376281_702364058 702364058_702364059 702364059_702364060 702364060_702352360 702352360_702352370 702352370_702352371 702352371_702352372 702352372_702352412 702352412_702352413 702352413_702352414 702352414_702352415 702352415_702352416 702352416_702352417 702352417_702352418 702352418_702352419 702352419_702352420 702352420_702352421 702352421_702352422 702352422_702352423 702352423_702352424 702352424_702352425 702352425_702352426 702352426_702352427 702352427_702352428 702352428_702352429 702352429_702352430 702352430_702352401 702352401_3790949315 3790949315_3790949322 3790949322_3790949316 3790949316_702351899 702351899_1833875775 1833875775_3555805912 3555805912_4273053908 4273053908_3790949317 3790949317_3790949307 3790949307_130040068 130040068_583063758 583063758_30942487 30942487_4794459427 4794459427_130042878 130042878_4794459318 4794459318_202473725 202473725_130042877 130042877_130042876 130042876_130042875 130042875_130043112 130043112_130040689 130040689_3790949324 3790949324_1112411451 1112411451_1112411360 1112411360_1112411424 1112411424_1112411441 1112411441_1112411377 1112411377_1112411372 1112411372_130043040 130043040_3326880159 3326880159_3326880156 3326880156_3326880153 3326880153_130042866 130042866_202520404 202520404_2401378847 2401378847_2401378846 2401378846_1112411439 1112411439_1112411392 1112411392_1112411411 1112411411_1112411407 1112411407_1112411379 1112411379_1112411390 1112411390_1112411445 1112411445_1112411450 1112411450_1112411427 1112411427_130044430 130044430_130043644 130043644_3790949326 3790949326_3790949327 3790949327_3790949328 3790949328_3790949329 3790949329_3790949330 3790949330_3790949331 3790949331_583197079 583197079_622959760 622959760_130042127 130042127_314471206 314471206_249993652 249993652_622991340 622991340_622991336 622991336_622991405 622991405_249995133 249995133_622991399 622991399_622991395 622991395_1980974594 1980974594_1980974596 1980974596_616534646 616534646_616534550 616534550_616534378 616534378_249997611 249997611_2689711295 2689711295_249998932 249998932_616534997 616534997_249997007 249997007_3769827298 3769827298_250001736 250001736_250001977 250001977_3363089039 3363089039_4826319023 4826319023_3221150102 3221150102_3221150111 3221150111_3221150112 3221150112_3221150113 3221150113_4921445862 4921445862_250001151 250001151_623027565 623027565_623027562 623027562_623027560 623027560_4826317170 4826317170_4826317172 4826317172_4826317173 4826317173_1980926607 1980926607_1980926605 1980926605_250004335 250004335_5010855213 5010855213_5010855214 5010855214_1387990238 1387990238_273118370 273118370_309076628 309076628_2065952427 2065952427_2065952419 2065952419_2065952410 2065952410_2065952431 2065952431_273118143 273118143_2065952425 2065952425_2065952406 2065952406_2065952412 2065952412_2065952414 2065952414_1387990239 1387990239_309078487 309078487_321118249 321118249_321118228 321118228_309078490 309078490_4752173789 4752173789_3394812220 3394812220_309078651 309078651_309078652 309078652_616528404 616528404_616528413 616528413_616528414 616528414_321118774 321118774_321118773 321118773_616528376 616528376_321118745 321118745_321119152 321119152_663516825 663516825_663516823 663516823_663516820 663516820_663516803 663516803_321119268 321119268_321121625 321121625_321121727 321121727_321119862 321119862_663516826 663516826_1363293798 1363293798_321118950 321118950_320085933 320085933_663516833 663516833_663516837 663516837_663516854 663516854_663516838 663516838_616528156 616528156_320085932 320085932_616528141 616528141_616528142 616528142_320086223 320086223_616528024 616528024_616528023 616528023_320085930 320085930_320085878 320085878_616527914 616527914_4999867461 4999867461_320085869 320085869_320085868 320085868_1801486737 1801486737_320085848 320085848_3359255460 3359255460_253549829 253549829_36022342 36022342_3359255433 3359255433_3359255435 3359255435_2268148328 2268148328_320846340 320846340_320846339 320846339_320847097 320847097_320847243 320847243_3363091680 3363091680_5158252117 5158252117_320847731 320847731_3513727290 3513727290_3513727495 3513727495_320846701 320846701_320848174 320848174_5158243642 5158243642_320847931 320847931_320846651 320846651_320853729 320853729_320853567 320853567_5158248172 5158248172_5158243667 5158243667_5158243657 5158243657_5158248170 5158248170_5158243659 5158243659_321399528 321399528_5158248171 5158248171_5158243685 5158243685_5158243683 5158243683_5158248169 5158248169_320853553 320853553_320853550 320853550_320853547 320853547_320853432 320853432_320853455 320853455_320853467 320853467_320852885 320852885_320852884 320852884_320852883 320852883_320852882 320852882_5158305391 5158305391_1833869068 1833869068_1833869070 1833869070_1833869065 1833869065_2612216102 2612216102_370708433 " id="route0" /><route edges="1928298965_313441047 313441047_313440696 313440696_313254247 313254247_313254248 313254248_313254135 313254135_313254237 313254237_313254107 313254107_313254089 313254089_313140253 313140253_313140255 313140255_313140297 313140297_875512291 875512291_875512290 875512290_673083767 673083767_673083766 673083766_673083764 673083764_313140107 313140107_313140045 313140045_313248462 313248462_21643809 21643809_313248453 313248453_462859358 462859358_462868395 462868395_311901574 311901574_310001311 310001311_4695022397 4695022397_4695022177 4695022177_4695022400 4695022400_310001315 310001315_4695022131 4695022131_4695022403 4695022403_310001313 310001313_310001305 310001305_309975163 309975163_2123710627 2123710627_2123710636 2123710636_370482113 370482113_370482096 370482096_2123710635 2123710635_370482112 370482112_2123710639 2123710639_370482097 370482097_309977489 309977489_3951079467 3951079467_309977587 309977587_263991611 263991611_309977442 309977442_309977425 309977425_263991609 263991609_1657066768 1657066768_4679496733 4679496733_1657066780 1657066780_1657066700 1657066700_1657066749 1657066749_1657066765 1657066765_1657066770 1657066770_1657066724 1657066724_4679496786 4679496786_3811090737 3811090737_4679496788 4679496788_4679496889 4679496889_4679496890 4679496890_4679496891 4679496891_4679496892 4679496892_4679496893 4679496893_4679496894 4679496894_4679496895 4679496895_4679496896 4679496896_4679496897 4679496897_4679496898 4679496898_2247591101 2247591101_2247672417 2247672417_2247591117 2247591117_876910906 876910906_309984697 309984697_2247594822 2247594822_2247591111 2247591111_2247591102 2247591102_2247591108 2247591108_309978619 309978619_309989441 309989441_309989117 309989117_309988243 309988243_309985040 309985040_309984722 309984722_3207120850 3207120850_1657067346 1657067346_3207120848 3207120848_3207120849 3207120849_309981758 309981758_309981463 309981463_2938993257 2938993257_3207124677 3207124677_3207124682 3207124682_3207124684 3207124684_3207124687 3207124687_3207124685 3207124685_309991303 309991303_3207124708 3207124708_370479436 370479436_370479395 370479395_4034623523 4034623523_1487967725 1487967725_1487967726 1487967726_1487967728 1487967728_4169720285 4169720285_309979105 309979105_4169720251 4169720251_2245333840 2245333840_2245339628 2245339628_2245339643 2245339643_4169720287 4169720287_29936553 29936553_4169720259 4169720259_309978787 309978787_1522977019 1522977019_1522839079 1522839079_1522566268 1522566268_1522834359 1522834359_1522566317 1522566317_1522834323 1522834323_1522834383 1522834383_1522834451 1522834451_1522834342 1522834342_1522834448 1522834448_1522834478 1522834478_1522834368 1522834368_1522566181 1522566181_304700483 304700483_3205511506 3205511506_3205511505 3205511505_214131724 214131724_4169720791 4169720791_214131699 214131699_214131680 214131680_1533600348 1533600348_1533600349 1533600349_1426680612 1426680612_214099017 214099017_1426680609 1426680609_303913489 303913489_1426680608 1426680608_2242869367 2242869367_214099039 214099039_1533481705 1533481705_214117760 214117760_30221048 30221048_277362814 277362814_4283908187 4283908187_2241696406 2241696406_277362811 277362811_1546958636 1546958636_1546958634 1546958634_2241696401 2241696401_2978801845 2978801845_2978801848 2978801848_2978801846 2978801846_2978801847 2978801847_277362808 277362808_723980903 723980903_277362807 277362807_277362806 277362806_4283908181 4283908181_30221043 30221043_4283908183 4283908183_277363029 277363029_3394892455 3394892455_610682598 610682598_2481930756 2481930756_610682568 610682568_30948163 30948163_30948164 30948164_30948165 30948165_4510119499 4510119499_2481930758 2481930758_1463620543 1463620543_30948166 30948166_1463620781 1463620781_30948117 30948117_1982439994 1982439994_1982440014 1982440014_1982440016 1982440016_1982440010 1982440010_1982440001 1982440001_309346766 309346766_1463620608 1463620608_443530294 443530294_443530296 443530296_443530293 443530293_443530295 443530295_356084892 356084892_356084954 356084954_356085164 356085164_2239389706 2239389706_248746740 248746740_1463620590 1463620590_30947904 30947904_1463620394 1463620394_1463620765 1463620765_30385486 30385486_1463656456 1463656456_356088461 356088461_356088983 356088983_1463620918 1463620918_30385485 30385485_3462475896 3462475896_30385496 30385496_30385491 30385491_248746735 248746735_30385487 30385487_4072557019 4072557019_4072557020 4072557020_4072557017 4072557017_4072557018 4072557018_248746693 248746693_248746703 248746703_248746691 248746691_248746695 248746695_248746696 248746696_3683319253 3683319253_248746690 248746690_2975544030 2975544030_2975544022 2975544022_2975544023 2975544023_1713449452 1713449452_5478624795 5478624795_5478624796 5478624796_241807452 241807452_2614472705 2614472705_266733118 266733118_2583201106 2583201106_3146808106 3146808106_1241460740 1241460740_1146163693 1146163693_241807193 241807193_417270193 417270193_370751058 370751058_3462475912 3462475912_2358053032 2358053032_370750748 370750748_5257193649 5257193649_3146808079 3146808079_3146808077 3146808077_3146808071 3146808071_370752408 370752408_547568767 547568767_370752343 370752343_370752605 370752605_547586916 547586916_370752533 370752533_2324385464 2324385464_370749842 370749842_2324385474 2324385474_2324385465 2324385465_370750323 370750323_370750302 370750302_2324385462 2324385462_2324385473 2324385473_2324385470 2324385470_241807392 241807392_2324385466 2324385466_3144992689 3144992689_3144992687 3144992687_2324385467 2324385467_241807391 241807391_1449289352 1449289352_1449289324 1449289324_1449289318 1449289318_3144850725 3144850725_3144992684 3144992684_3144850722 3144850722_370474365 370474365_370749206 370749206_241807187 241807187_1517193200 1517193200_2302923329 2302923329_650268120 650268120_650268124 650268124_1879021176 1879021176_1879021160 1879021160_1449297305 1449297305_650267483 650267483_650267588 650267588_650282682 650282682_583242779 583242779_650285164 650285164_650285160 650285160_650286362 650286362_650286365 650286365_650286369 650286369_1449431267 1449431267_2347234662 2347234662_580890024 580890024_1449431578 1449431578_1449431594 1449431594_1449431465 1449431465_4148228278 4148228278_4148228277 4148228277_1449431467 1449431467_1449431331 1449431331_4746122983 4746122983_4746121968 4746121968_3597715833 3597715833_2279153653 2279153653_1449431539 1449431539_2189497226 2189497226_2189497232 2189497232_4544561903 4544561903_4544561902 4544561902_4544561900 4544561900_2189497200 2189497200_4544561901 4544561901_3191033052 3191033052_2187986713 2187986713_2187986709 2187986709_2187983888 2187983888_2187983874 2187983874_2187983887 2187983887_2187983886 2187983886_3367904397 3367904397_2187983876 2187983876_2188406733 2188406733_2188406738 2188406738_2188406737 2188406737_2188406736 2188406736_2187983881 2187983881_3367904410 3367904410_1985557912 1985557912_1985557913 1985557913_1985557927 1985557927_1985557923 1985557923_26034669 26034669_3367904418 3367904418_4544002874 4544002874_245537608 245537608_596919944 596919944_596919937 596919937_245537561 245537561_245537551 245537551_245537580 245537580_2383211210 2383211210_2383211209 2383211209_2187770704 2187770704_2187770698 2187770698_1903722314 1903722314_2187770695 2187770695_1558806066 1558806066_1558806077 1558806077_176703213 176703213_176693430 176693430_176699680 176699680_714724462 714724462_176693402 176693402_2190483597 2190483597_176693360 176693360_2190483583 2190483583_4326586190 4326586190_4326586189 4326586189_2190483587 2190483587_2291073976 2291073976_3394697026 3394697026_4017279091 4017279091_2190483595 2190483595_2190483582 2190483582_2190483589 2190483589_2190483585 2190483585_3933094366 3933094366_2190483578 2190483578_1700628267 1700628267_2190622034 2190622034_774518620 774518620_774518617 774518617_774519013 774519013_711369697 711369697_711359068 711359068_711369366 711369366_711358863 711358863_711358867 711358867_708717121 708717121_2991935465 2991935465_708717112 708717112_777753012 777753012_777700831 777700831_774546107 774546107_777704431 777704431_777697587 777697587_777703071 777703071_777743666 777743666_777703067 777703067_777702202 777702202_777702088 777702088_777701894 777701894_777753008 777753008_777753006 777753006_777792533 777792533_777792497 777792497_777790156 777790156_777790159 777790159_777790169 777790169_777790992 777790992_3306876680 3306876680_2266563663 2266563663_3306876678 3306876678_2266563642 2266563642_2266563651 2266563651_2266563639 2266563639_259616751 259616751_30942994 30942994_289602599 289602599_289602608 289602608_332544910 332544910_3394738567 3394738567_332544858 332544858_332544866 332544866_3394730431 3394730431_3394730433 3394730433_3394730432 3394730432_1492131968 1492131968_1492131937 1492131937_296027713 296027713_1492131952 1492131952_296027706 296027706_305106971 305106971_296027680 296027680_1132070481 1132070481_296027697 296027697_26680093 26680093_1132070489 1132070489_1132070467 1132070467_26680091 26680091_92130447 92130447_1132069605 1132069605_1132069617 1132069617_60653733 60653733_277125043 277125043_129557026 129557026_709707024 709707024_709707019 709707019_129557025 129557025_129557023 129557023_41675613 41675613_400738477 400738477_129557021 129557021_41675612 41675612_129557020 129557020_571459744 571459744_634775467 634775467_1224872742 1224872742_41675609 41675609_571459351 571459351_571460260 571460260_306961201 306961201_571460262 571460262_560997595 560997595_306961195 306961195_306961188 306961188_400753614 400753614_41667993 41667993_290048317 290048317_41667991 41667991_1224872741 1224872741_304710871 304710871_304710870 304710870_3285633579 3285633579_5320613467 5320613467_5322615232 5322615232_76459258 76459258_4415760632 4415760632_3285633576 3285633576_2172718107 2172718107_76459296 76459296_3285623814 3285623814_373646060 373646060_373645976 373645976_373645935 373645935_373645955 373645955_373650770 373650770_3285622625 3285622625_373649839 373649839_373647019 373647019_373647017 373647017_3589874795 3589874795_373647014 373647014_373647011 373647011_3589874793 3589874793_373646808 373646808_373652152 373652152_373646823 373646823_3589872340 3589872340_373651729 373651729_373651728 373651728_373651727 373651727_373652884 373652884_373652885 373652885_4893634375 4893634375_373652886 373652886_373652887 373652887_4893634418 4893634418_4893634044 4893634044_4893634060 4893634060_373652888 373652888_4893634426 4893634426_3589883222 3589883222_3589883221 3589883221_373652894 373652894_373652895 373652895_373652897 373652897_373652899 373652899_373652900 373652900_373654582 373654582_373654585 373654585_373654586 373654586_373654587 373654587_373654589 373654589_373654591 373654591_373654592 373654592_373654594 373654594_373654596 373654596_373654598 373654598_373654600 373654600_373654601 373654601_373654604 373654604_3150298352 3150298352_373654606 373654606_4893294470 4893294470_4893294465 4893294465_373654609 373654609_295875305 295875305_295875206 295875206_3150298351 3150298351_295875304 295875304_295875303 295875303_295875140 295875140_295874447 295874447_295874650 295874650_295874523 295874523_2401378852 2401378852_129543194 129543194_129543193 129543193_35726481 35726481_35726480 35726480_129543192 129543192_129543191 129543191_129545523 129545523_5495352685 5495352685_5495352684 5495352684_35726479 35726479_878569544 878569544_878569559 878569559_5495352687 5495352687_3176128932 3176128932_5495352683 5495352683_878569548 878569548_878569564 878569564_878569556 878569556_583189179 583189179_583189061 583189061_3221150099 3221150099_4740947181 4740947181_5495352681 5495352681_4740947180 4740947180_3363082672 3363082672_3363082669 3363082669_3221150100 3221150100_3480502762 3480502762_3363089103 3363089103_878558052 878558052_250002446 250002446_122727219 122727219_4969348321 4969348321_4969348256 4969348256_4969348262 4969348262_4969348300 4969348300_827129293 827129293_122727218 122727218_583186869 583186869_122727216 122727216_122727215 122727215_583186610 583186610_1080149303 1080149303_2432258105 2432258105_122727214 122727214_2612992585 2612992585_2612992584 2612992584_583186173 583186173_583186172 583186172_4746494710 4746494710_583186167 583186167_583186171 583186171_583186168 583186168_250042777 250042777_2302923331 2302923331_250007758 250007758_4949987626 4949987626_4949987409 4949987409_250006987 250006987_4949987403 4949987403_4765991950 4765991950_4765991949 4765991949_4949987405 4949987405_348718456 348718456_250008162 250008162_250291195 250291195_4087489253 4087489253_250291196 250291196_663516316 663516316_4903344787 4903344787_32476610 32476610_581229787 581229787_321530548 321530548_2097588139 2097588139_2299094544 2299094544_2299094545 2299094545_321531208 321531208_321531207 321531207_4997064517 4997064517_4997064516 4997064516_616526761 616526761_4997064921 4997064921_4997064520 4997064520_4997064519 4997064519_4997064518 4997064518_1312618019 1312618019_4997064512 4997064512_4997064513 4997064513_4789353355 4789353355_312963564 312963564_616526780 616526780_616526781 616526781_616526782 616526782_312963566 312963566_616526783 616526783_616526786 616526786_616526787 616526787_616526788 616526788_4789353377 4789353377_321536370 321536370_321540253 321540253_321540261 321540261_5484183939 5484183939_320492154 320492154_3783330868 3783330868_320492315 320492315_320480779 320480779_696116921 696116921_696116920 696116920_696116919 696116919_696116918 696116918_696116917 696116917_696116916 696116916_320491823 320491823_2515069141 2515069141_320491973 320491973_4684901332 4684901332_4684901320 4684901320_571835757 571835757_571835738 571835738_571835737 571835737_571835736 571835736_571835735 571835735_571835731 571835731_571835369 571835369_571835393 571835393_571835368 571835368_571835367 571835367_571835726 571835726_571835365 571835365_571835364 571835364_571835362 571835362_571835717 571835717_571835360 571835360_571835359 571835359_571835677 571835677_571835358 571835358_571835673 571835673_571835357 571835357_571835675 571835675_571835674 571835674_571835659 571835659_571835660 571835660_571835662 571835662_571835663 571835663_571835664 571835664_571835665 571835665_571835666 571835666_571835667 571835667_571835330 571835330_3189524834 3189524834_3189524833 3189524833_571835329 571835329_3189524832 3189524832_320488742 320488742_571835303 571835303_571835304 571835304_571835305 571835305_571835306 571835306_571835307 571835307_571835308 571835308_571835309 571835309_571835276 571835276_571835310 571835310_250291403 250291403_2100795443 2100795443_2100795447 2100795447_2100795444 2100795444_250291406 250291406_2100795449 2100795449_2102878576 2102878576_3855646548 3855646548_2100795445 2100795445_3855646546 3855646546_3855646547 3855646547_3855646545 3855646545_250291504 250291504_2100795462 2100795462_253546192 253546192_250291418 250291418_320852504 320852504_370708114 370708114_370708264 370708264_370708343 370708343_370708381 370708381_320852621 320852621_1833869065 1833869065_2612216102 2612216102_370708433 " id="route1" /><route edges="1928298965_313441110 313441110_313440691 313440691_313441737 313441737_313254240 313254240_313139758 313139758_1928315581 1928315581_1928315592 1928315592_1928315579 1928315579_1928315589 1928315589_1928315553 1928315553_1928315555 1928315555_1928315558 1928315558_1928315573 1928315573_1928315552 1928315552_1928315586 1928315586_313139789 313139789_313254109 313254109_313139805 313139805_313254077 313254077_313139816 313139816_313140298 313140298_313139836 313139836_673083815 673083815_313139946 313139946_313140141 313140141_313140107 313140107_313140045 313140045_313248462 313248462_21643809 21643809_313248453 313248453_462859358 462859358_462868395 462868395_311901574 311901574_310001311 310001311_3496672103 3496672103_311902363 311902363_310001304 310001304_309977100 309977100_2123710642 2123710642_37048212