<?xml version="1.0" encoding="UTF-8"?>

<!-- generated on 04/22/18 16:17:57 by SUMO netconvert Version 0.32.0
<?xml version="1.0" encoding="UTF-8"?>

<configuration xmlns:xsi="http://www.w3.org/2001/XMLSchema-instance" xsi:noNamespaceSchemaLocation="http://sumo.dlr.de/xsd/netconvertConfiguration.xsd">

    <input>
        <node-files value="melbourne_a_1500.nod.xml"/>
        <edge-files value="melbourne_a_1500.edg.xml"/>
    </input>

    <output>
        <output-file value="melbourne_a_1500.net.xml"/>
    </output>

    <projection>
        <proj.utm value="true"/>
    </projection>

</configuration>
-->

<net version="0.27" xmlns:xsi="http://www.w3.org/2001/XMLSchema-instance" xsi:noNamespaceSchemaLocation="http://sumo.dlr.de/xsd/net_file.xsd">

    <location netOffset="-311448.67,4188068.56" convBoundary="0.00,0.00,19058.31,4442.75" origBoundary="144.857946,-37.821712,145.074681,-37.784079" projParameter="+proj=utm +zone=55 +ellps=WGS84 +datum=WGS84 +units=m +no_defs"/>

    <edge id=":1033063213_0" function="internal">
        <lane id=":1033063213_0_0" index="0" speed="13.90" length="0.30" shape="11973.82,2474.02 11973.52,2474.05"/>
    </edge>
    <edge id=":1033063252_0" function="internal">
        <lane id=":1033063252_0_0" index="0" speed="13.90" length="0.10" shape="12052.26,2428.51 12052.26,2428.51"/>
    </edge>
    <edge id=":1044261735_0" function="internal">
        <lane id=":1044261735_0_0" index="0" speed="13.90" length="0.22" shape="2879.13,1788.76 2878.91,1788.79"/>
    </edge>
    <edge id=":1044261742_0" function="internal">
        <lane id=":1044261742_0_0" index="0" speed="13.90" length="0.36" shape="2396.96,1919.72 2396.88,1919.78 2396.82,1919.82 2396.76,1919.86 2396.66,1919.91"/>
    </edge>
    <edge id=":1055899383_0" function="internal">
        <lane id=":1055899383_0_0" index="0" speed="13.90" length="0.86" shape="3878.30,2107.24 3878.04,2107.24 3877.87,2107.21 3877.70,2107.15 3877.48,2107.02"/>
    </edge>
    <edge id=":1055899394_0" function="internal">
        <lane id=":1055899394_0_0" index="0" speed="13.90" length="0.10" shape="3893.68,2104.39 3893.60,2104.42"/>
    </edge>
    <edge id=":1055899398_0" function="internal">
        <lane id=":1055899398_0_0" index="0" speed="13.90" length="0.29" shape="3953.93,2083.78 3953.65,2083.87"/>
    </edge>
    <edge id=":1055899399_0" function="internal">
        <lane id=":1055899399_0_0" index="0" speed="13.90" length="0.59" shape="3873.30,2104.54 3873.15,2104.45 3873.06,2104.37 3872.97,2104.29 3872.86,2104.15"/>
    </edge>
    <edge id=":1055899446_0" function="internal">
        <lane id=":1055899446_0_0" index="0" speed="13.90" length="0.43" shape="3870.63,2101.30 3870.55,2101.20 3870.50,2101.13 3870.46,2101.05 3870.41,2100.93"/>
    </edge>
    <edge id=":1055899451_0" function="internal">
        <lane id=":1055899451_0_0" index="0" speed="13.90" length="0.45" shape="3883.87,2107.19 3883.75,2107.22 3883.66,2107.24 3883.57,2107.25 3883.43,2107.25"/>
    </edge>
    <edge id=":1055899454_0" function="internal">
        <lane id=":1055899454_0_0" index="0" speed="13.90" length="0.29" shape="4250.39,1981.74 4250.30,1981.46"/>
    </edge>
    <edge id=":1060265081_0" function="internal">
        <lane id=":1060265081_0_0" index="0" speed="13.90" length="0.40" shape="5106.42,1581.60 5106.35,1581.70 5106.30,1581.76 5106.23,1581.81 5106.14,1581.88"/>
    </edge>
    <edge id=":1060265085_0" function="internal">
        <lane id=":1060265085_0_0" index="0" speed="13.90" length="0.23" shape="5099.40,1587.15 5099.35,1587.19 5099.31,1587.22 5099.27,1587.24 5099.21,1587.28"/>
    </edge>
    <edge id=":1060265091_0" function="internal">
        <lane id=":1060265091_0_0" index="0" speed="13.90" length="0.46" shape="5110.07,1576.80 5110.02,1576.92 5109.97,1577.01 5109.92,1577.09 5109.84,1577.20"/>
    </edge>
    <edge id=":1060265093_0" function="internal">
        <lane id=":1060265093_0_0" index="0" speed="13.90" length="5.66" shape="5113.93,1572.90 5112.77,1573.24 5111.75,1573.99 5110.86,1575.14 5110.11,1576.70"/>
    </edge>
    <edge id=":1060265093_1" function="internal">
        <lane id=":1060265093_1_0" index="0" speed="13.90" length="6.61" shape="5113.93,1572.90 5107.36,1573.63"/>
    </edge>
    <edge id=":1093410277_0" function="internal">
        <lane id=":1093410277_0_0" index="0" speed="13.90" length="0.30" shape="12627.15,1842.04 12626.85,1842.08"/>
    </edge>
    <edge id=":1093410280_0" function="internal">
        <lane id=":1093410280_0_0" index="0" speed="13.90" length="0.10" shape="12828.60,1858.80 12828.60,1858.80"/>
    </edge>
    <edge id=":1108942150_0" function="internal">
        <lane id=":1108942150_0_0" index="0" speed="13.90" length="0.24" shape="5245.30,3271.99 5245.12,3271.83"/>
    </edge>
    <edge id=":1112411379_0" function="internal">
        <lane id=":1112411379_0_0" index="0" speed="13.90" length="0.30" shape="4974.54,2242.55 4974.24,2242.59"/>
    </edge>
    <edge id=":1112411389_0" function="internal">
        <lane id=":1112411389_0_0" index="0" speed="13.90" length="0.30" shape="6272.68,2091.83 6272.39,2091.87"/>
    </edge>
    <edge id=":1112411390_0" function="internal">
        <lane id=":1112411390_0_0" index="0" speed="13.90" length="0.28" shape="4867.98,2257.60 4867.71,2257.64"/>
    </edge>
    <edge id=":1112411392_0" function="internal">
        <lane id=":1112411392_0_0" index="0" speed="13.90" length="0.30" shape="5152.23,2220.05 5151.94,2220.09"/>
    </edge>
    <edge id=":1112411407_0" function="internal">
        <lane id=":1112411407_0_0" index="0" speed="13.90" length="7.03" shape="4997.72,2242.89 4995.78,2241.53 4994.09,2240.61 4992.64,2240.11 4991.44,2240.05"/>
    </edge>
    <edge id=":1112411407_1" function="internal">
        <lane id=":1112411407_1_0" index="0" speed="13.90" length="7.36" shape="4998.71,2238.88 4991.44,2240.05"/>
    </edge>
    <edge id=":1112411411_0" function="internal">
        <lane id=":1112411411_0_0" index="0" speed="13.90" length="0.10" shape="5015.16,2236.09 5015.24,2236.08"/>
    </edge>
    <edge id=":1112411413_0" function="internal">
        <lane id=":1112411413_0_0" index="0" speed="13.90" length="0.10" shape="6250.22,2094.60 6250.16,2094.61"/>
    </edge>
    <edge id=":1112411421_0" function="internal">
        <lane id=":1112411421_0_0" index="0" speed="13.90" length="0.10" shape="6236.27,2095.79 6236.36,2095.78"/>
    </edge>
    <edge id=":1112411427_0" function="internal">
        <lane id=":1112411427_0_0" index="0" speed="13.90" length="1.00" shape="4803.06,2273.82 4802.83,2273.99 4802.65,2274.09 4802.45,2274.13 4802.16,2274.15"/>
    </edge>
    <edge id=":1112411439_0" function="internal">
        <lane id=":1112411439_0_0" index="0" speed="13.90" length="0.30" shape="5173.78,2217.67 5173.48,2217.70"/>
    </edge>
    <edge id=":1112411445_0" function="internal">
        <lane id=":1112411445_0_0" index="0" speed="13.90" length="0.28" shape="4821.85,2265.03 4821.77,2265.04 4821.71,2265.05 4821.66,2265.07 4821.58,2265.10"/>
    </edge>
    <edge id=":1112411450_0" function="internal">
        <lane id=":1112411450_0_0" index="0" speed="13.90" length="0.53" shape="4808.51,2269.66 4808.36,2269.71 4808.26,2269.75 4808.17,2269.81 4808.05,2269.91"/>
    </edge>
    <edge id=":1132070442_0" function="internal">
        <lane id=":1132070442_0_0" index="0" speed="13.90" length="0.25" shape="7514.29,1061.11 7514.22,1061.10 7514.17,1061.10 7514.12,1061.10 7514.05,1061.10"/>
    </edge>
    <edge id=":1132070443_0" function="internal">
        <lane id=":1132070443_0_0" index="0" speed="13.90" length="0.28" shape="7401.13,1121.51 7400.90,1121.67"/>
    </edge>
    <edge id=":1132070451_0" function="internal">
        <lane id=":1132070451_0_0" index="0" speed="13.90" length="0.10" shape="7383.17,1133.86 7383.10,1133.90"/>
    </edge>
    <edge id=":1132070452_0" function="internal">
        <lane id=":1132070452_0_0" index="0" speed="13.90" length="0.10" shape="7167.35,1260.50 7167.35,1260.50"/>
    </edge>
    <edge id=":1132070465_0" function="internal">
        <lane id=":1132070465_0_0" index="0" speed="13.90" length="0.29" shape="7333.41,1164.27 7333.15,1164.43"/>
    </edge>
    <edge id=":1132070467_0" function="internal">
        <lane id=":1132070467_0_0" index="0" speed="13.90" length="0.16" shape="7533.24,1065.08 7533.19,1065.06 7533.16,1065.05 7533.13,1065.04 7533.08,1065.03"/>
    </edge>
    <edge id=":1132070468_0" function="internal">
        <lane id=":1132070468_0_0" index="0" speed="13.90" length="0.17" shape="7506.47,1061.26 7506.42,1061.26 7506.38,1061.26 7506.35,1061.26 7506.30,1061.27"/>
    </edge>
    <edge id=":1132070472_0" function="internal">
        <lane id=":1132070472_0_0" index="0" speed="13.90" length="0.21" shape="7473.12,1070.58 7473.07,1070.61 7473.03,1070.63 7472.99,1070.65 7472.94,1070.69"/>
    </edge>
    <edge id=":1132070481_0" function="internal">
        <lane id=":1132070481_0_0" index="0" speed="13.90" length="0.29" shape="7664.89,1134.28 7664.63,1134.15"/>
    </edge>
    <edge id=":1132070487_0" function="internal">
        <lane id=":1132070487_0_0" index="0" speed="13.90" length="0.30" shape="7438.76,1094.53 7438.52,1094.71"/>
    </edge>
    <edge id=":1132070489_0" function="internal">
        <lane id=":1132070489_0_0" index="0" speed="13.90" length="0.21" shape="7548.51,1070.77 7548.45,1070.74 7548.42,1070.72 7548.38,1070.71 7548.32,1070.68"/>
    </edge>
    <edge id=":114268737_0" function="internal">
        <lane id=":114268737_0_0" index="0" speed="13.90" length="0.29" shape="13476.14,2185.90 13475.88,2186.03"/>
    </edge>
    <edge id=":1192149947_0" function="internal">
        <lane id=":1192149947_0_0" index="0" speed="13.90" length="1.27" shape="12771.25,2481.70 12770.88,2481.70 12770.62,2481.65 12770.39,2481.52 12770.11,2481.27"/>
    </edge>
    <edge id=":1201417377_0" function="internal">
        <lane id=":1201417377_0_0" index="0" speed="13.90" length="0.29" shape="6523.56,2537.48 6523.27,2537.51"/>
    </edge>
    <edge id=":122705650_0" function="internal">
        <lane id=":122705650_0_0" index="0" speed="13.90" length="1.84" shape="8348.94,62.11 8348.47,61.99 8348.04,62.01 8347.62,62.16 8347.24,62.45"/>
    </edge>
    <edge id=":122705651_0" function="internal">
        <lane id=":122705651_0_0" index="0" speed="13.90" length="0.29" shape="8391.33,78.92 8391.06,78.82"/>
    </edge>
    <edge id=":122705652_0" function="internal">
        <lane id=":122705652_0_0" index="0" speed="13.90" length="0.30" shape="8440.12,99.22 8439.85,99.11"/>
    </edge>
    <edge id=":122705653_0" function="internal">
        <lane id=":122705653_0_0" index="0" speed="13.90" length="0.24" shape="8494.01,119.53 8493.79,119.44"/>
    </edge>
    <edge id=":122705655_0" function="internal">
        <lane id=":122705655_0_0" index="0" speed="13.90" length="0.11" shape="8544.28,140.01 8544.18,139.97"/>
    </edge>
    <edge id=":122723720_0" function="internal">
        <lane id=":122723720_0_0" index="0" speed="13.90" length="2.52" shape="2844.91,3.36 2844.72,2.70 2844.35,2.25 2843.83,2.02 2843.14,2.01"/>
    </edge>
    <edge id=":122725511_0" function="internal">
        <lane id=":122725511_0_0" index="0" speed="13.90" length="0.26" shape="3664.63,652.35 3664.60,652.10"/>
    </edge>
    <edge id=":122727211_0" function="internal">
        <lane id=":122727211_0_0" index="0" speed="13.90" length="0.16" shape="3668.87,699.85 3668.86,699.81 3668.85,699.77 3668.85,699.74 3668.85,699.69"/>
    </edge>
    <edge id=":122727218_0" function="internal">
        <lane id=":122727218_0_0" index="0" speed="13.90" length="2.62" shape="3865.95,1285.82 3865.82,1285.11 3865.94,1284.54 3866.33,1284.09 3866.98,1283.78"/>
    </edge>
    <edge id=":122727220_0" function="internal">
        <lane id=":122727220_0_0" index="0" speed="13.90" length="0.10" shape="4044.30,1799.82 4044.27,1799.73"/>
    </edge>
    <edge id=":122730503_0" function="internal">
        <lane id=":122730503_0_0" index="0" speed="13.90" length="3.36" shape="4220.52,1753.36 4217.34,1754.45"/>
    </edge>
    <edge id=":122730503_1" function="internal">
        <lane id=":122730503_1_0" index="0" speed="13.90" length="3.31" shape="4220.52,1753.36 4219.59,1753.67 4218.94,1753.85 4218.27,1753.96 4217.30,1754.09"/>
    </edge>
    <edge id=":122732708_0" function="internal">
        <lane id=":122732708_0_0" index="0" speed="13.90" length="6.22" shape="4051.84,1812.86 4045.96,1814.86"/>
    </edge>
    <edge id=":122732708_1" function="internal">
        <lane id=":122732708_1_0" index="0" speed="13.90" length="5.03" shape="4051.84,1812.86 4050.49,1813.13 4049.38,1812.89 4048.52,1812.15 4047.91,1810.92"/>
    </edge>
    <edge id=":122860230_0" function="internal">
        <lane id=":122860230_0_0" index="0" speed="13.90" length="0.10" shape="8747.54,330.89 8747.54,330.89"/>
    </edge>
    <edge id=":123330902_0" function="internal">
        <lane id=":123330902_0_0" index="0" speed="13.90" length="1.66" shape="6469.75,2551.82 6469.57,2552.21 6469.31,2552.52 6468.98,2552.74 6468.58,2552.88"/>
    </edge>
    <edge id=":123336674_0" function="internal">
        <lane id=":123336674_0_0" index="0" speed="13.90" length="2.58" shape="6200.09,2682.49 6199.58,2682.98 6199.04,2683.19 6198.46,2683.12 6197.85,2682.77"/>
    </edge>
    <edge id=":123338881_0" function="internal">
        <lane id=":123338881_0_0" index="0" speed="13.90" length="0.25" shape="5970.26,2476.14 5970.02,2476.20"/>
    </edge>
    <edge id=":123338882_0" function="internal">
        <lane id=":123338882_0_0" index="0" speed="13.90" length="0.66" shape="5965.16,2478.84 5965.08,2479.01 5965.02,2479.13 5964.93,2479.23 5964.79,2479.37"/>
    </edge>
    <edge id=":123339761_0" function="internal">
        <lane id=":123339761_0_0" index="0" speed="13.90" length="0.10" shape="5963.39,2504.61 5963.34,2504.57"/>
    </edge>
    <edge id=":123343221_0" function="internal">
        <lane id=":123343221_0_0" index="0" speed="13.90" length="4.18" shape="5953.26,2496.26 5952.02,2495.38 5951.01,2495.00 5950.24,2495.11 5949.71,2495.72"/>
    </edge>
    <edge id=":123343221_1" function="internal">
        <lane id=":123343221_1_0" index="0" speed="13.90" length="5.21" shape="5952.43,2491.34 5951.38,2492.45 5950.80,2493.33 5950.35,2494.31 5949.71,2495.72"/>
    </edge>
    <edge id=":123343223_0" function="internal">
        <lane id=":123343223_0_0" index="0" speed="13.90" length="1.53" shape="5949.61,2495.92 5949.39,2496.25 5949.13,2496.51 5948.80,2496.69 5948.42,2496.79"/>
    </edge>
    <edge id=":123344642_0" function="internal">
        <lane id=":123344642_0_0" index="0" speed="13.90" length="0.29" shape="5505.39,2567.49 5505.10,2567.53"/>
    </edge>
    <edge id=":123349061_0" function="internal">
        <lane id=":123349061_0_0" index="0" speed="13.90" length="6.17" shape="6229.81,2644.32 6226.00,2649.18"/>
    </edge>
    <edge id=":123349061_1" function="internal">
        <lane id=":123349061_1_0" index="0" speed="13.90" length="4.99" shape="6229.81,2644.32 6228.82,2645.25 6227.76,2645.64 6226.64,2645.50 6225.45,2644.83"/>
    </edge>
    <edge id=":123349256_0" function="internal">
        <lane id=":123349256_0_0" index="0" speed="13.90" length="0.49" shape="6259.27,2607.79 6259.15,2607.88 6259.07,2607.94 6259.00,2608.01 6258.91,2608.12"/>
    </edge>
    <edge id=":123349505_0" function="internal">
        <lane id=":123349505_0_0" index="0" speed="13.90" length="0.27" shape="6079.49,2532.61 6079.28,2532.44"/>
    </edge>
    <edge id=":123349507_0" function="internal">
        <lane id=":123349507_0_0" index="0" speed="13.90" length="0.29" shape="6050.71,2571.14 6050.48,2570.97"/>
    </edge>
    <edge id=":123351761_0" function="internal">
        <lane id=":123351761_0_0" index="0" speed="13.90" length="1.44" shape="6001.92,2469.79 6001.61,2469.59 6001.29,2469.47 6000.94,2469.43 6000.57,2469.47"/>
    </edge>
    <edge id=":123353612_0" function="internal">
        <lane id=":123353612_0_0" index="0" speed="13.90" length="0.54" shape="6266.56,2603.06 6266.41,2603.10 6266.31,2603.13 6266.21,2603.19 6266.07,2603.27"/>
    </edge>
    <edge id=":123359835_0" function="internal">
        <lane id=":123359835_0_0" index="0" speed="13.90" length="0.30" shape="6382.51,2573.36 6382.23,2573.44"/>
    </edge>
    <edge id=":123360114_0" function="internal">
        <lane id=":123360114_0_0" index="0" speed="13.90" length="0.27" shape="6429.61,2561.62 6429.35,2561.68"/>
    </edge>
    <edge id=":125386156_0" function="internal">
        <lane id=":125386156_0_0" index="0" speed="13.90" length="2.56" shape="7365.47,2438.37 7365.45,2439.07 7365.22,2439.59 7364.76,2439.95 7364.09,2440.14"/>
    </edge>
    <edge id=":125388391_0" function="internal">
        <lane id=":125388391_0_0" index="0" speed="13.90" length="0.29" shape="7433.64,1965.85 7433.35,1965.88"/>
    </edge>
    <edge id=":127390268_0" function="internal">
        <lane id=":127390268_0_0" index="0" speed="13.90" length="0.10" shape="16574.94,2526.79 16575.01,2526.82"/>
    </edge>
    <edge id=":127508050_0" function="internal">
        <lane id=":127508050_0_0" index="0" speed="13.90" length="0.30" shape="7318.72,2919.52 7318.42,2919.57"/>
    </edge>
    <edge id=":127538409_0" function="internal">
        <lane id=":127538409_0_0" index="0" speed="13.90" length="0.27" shape="12214.94,2130.92 12214.98,2131.19"/>
    </edge>
    <edge id=":127601472_0" function="internal">
        <lane id=":127601472_0_0" index="0" speed="13.90" length="3.31" shape="7551.55,1820.99 7551.28,1820.07 7550.81,1819.56 7550.12,1819.47 7549.21,1819.80"/>
    </edge>
    <edge id=":127605795_0" function="internal">
        <lane id=":127605795_0_0" index="0" speed="13.90" length="0.30" shape="7586.73,2753.93 7586.44,2753.97"/>
    </edge>
    <edge id=":127621530_0" function="internal">
        <lane id=":127621530_0_0" index="0" speed="13.90" length="2.66" shape="7189.59,2937.97 7188.86,2937.97 7188.31,2937.73 7187.95,2937.26 7187.77,2936.55"/>
    </edge>
    <edge id=":127638260_0" function="internal">
        <lane id=":127638260_0_0" index="0" speed="13.90" length="0.12" shape="7758.94,1449.14 7758.86,1449.23"/>
    </edge>
    <edge id=":127638288_0" function="internal">
        <lane id=":127638288_0_0" index="0" speed="13.90" length="2.51" shape="7806.27,1397.45 7805.68,1397.11 7805.11,1397.03 7804.57,1397.21 7804.06,1397.66"/>
    </edge>
    <edge id=":127650566_0" function="internal">
        <lane id=":127650566_0_0" index="0" speed="13.90" length="0.10" shape="7651.52,1835.07 7651.52,1835.07"/>
    </edge>
    <edge id=":127674045_0" function="internal">
        <lane id=":127674045_0_0" index="0" speed="13.90" length="2.70" shape="12240.88,2298.22 12240.90,2298.97 12240.67,2299.52 12240.20,2299.89 12239.47,2300.08"/>
    </edge>
    <edge id=":1277943031_0" function="internal">
        <lane id=":1277943031_0_0" index="0" speed="13.90" length="0.10" shape="3205.20,2446.71 3205.20,2446.71"/>
    </edge>
    <edge id=":1277943037_0" function="internal">
        <lane id=":1277943037_0_0" index="0" speed="13.90" length="0.30" shape="3757.76,2378.45 3757.46,2378.48"/>
    </edge>
    <edge id=":1277943040_0" function="internal">
        <lane id=":1277943040_0_0" index="0" speed="13.90" length="0.30" shape="3782.75,2375.49 3782.45,2375.53"/>
    </edge>
    <edge id=":1277943056_0" function="internal">
        <lane id=":1277943056_0_0" index="0" speed="13.90" length="2.58" shape="3194.98,2440.76 3194.80,2440.07 3194.44,2439.61 3193.91,2439.37 3193.20,2439.35"/>
    </edge>
    <edge id=":1277943062_0" function="internal">
        <lane id=":1277943062_0_0" index="0" speed="13.90" length="2.60" shape="3197.42,2447.69 3196.71,2447.68 3196.17,2447.45 3195.82,2446.98 3195.63,2446.29"/>
    </edge>
    <edge id=":1277945612_0" function="internal">
        <lane id=":1277945612_0_0" index="0" speed="13.90" length="1.30" shape="2962.43,2463.62 2962.10,2463.67 2961.79,2463.64 2961.48,2463.55 2961.19,2463.39"/>
    </edge>
    <edge id=":1277945614_0" function="internal">
        <lane id=":1277945614_0_0" index="0" speed="13.90" length="0.89" shape="3024.38,2459.87 3024.12,2459.90 3023.93,2459.90 3023.76,2459.85 3023.51,2459.75"/>
    </edge>
    <edge id=":1277945619_0" function="internal">
        <lane id=":1277945619_0_0" index="0" speed="13.90" length="0.10" shape="3069.21,2454.02 3069.21,2454.02"/>
    </edge>
    <edge id=":1277945623_0" function="internal">
        <lane id=":1277945623_0_0" index="0" speed="13.90" length="1.16" shape="2977.30,2460.73 2977.00,2460.58 2976.77,2460.51 2976.53,2460.51 2976.19,2460.58"/>
    </edge>
    <edge id=":1277945628_0" function="internal">
        <lane id=":1277945628_0_0" index="0" speed="13.90" length="0.10" shape="3012.13,2459.40 3012.23,2459.39"/>
    </edge>
    <edge id=":1277945630_0" function="internal">
        <lane id=":1277945630_0_0" index="0" speed="13.90" length="6.18" shape="3065.54,2454.46 3059.41,2455.20"/>
    </edge>
    <edge id=":1277945630_1" function="internal">
        <lane id=":1277945630_1_0" index="0" speed="13.90" length="1.60" shape="3062.13,2451.70 3062.07,2453.08 3061.98,2453.28"/>
    </edge>
    <edge id=":1277945630_2" function="internal">
        <lane id=":1277945630_2_0" index="0" speed="13.90" length="3.42" shape="3061.98,2453.28 3061.60,2454.12 3060.71,2454.83 3059.41,2455.20"/>
    </edge>
    <edge id=":1277945635_0" function="internal">
        <lane id=":1277945635_0_0" index="0" speed="13.90" length="0.29" shape="2958.01,2461.25 2957.76,2461.08"/>
    </edge>
    <edge id=":1277945646_0" function="internal">
        <lane id=":1277945646_0_0" index="0" speed="13.90" length="0.83" shape="3021.24,2458.73 3021.01,2458.64 3020.85,2458.59 3020.68,2458.58 3020.43,2458.60"/>
    </edge>
    <edge id=":1277945656_0" function="internal">
        <lane id=":1277945656_0_0" index="0" speed="13.90" length="0.13" shape="3003.26,2460.81 3003.13,2460.82"/>
    </edge>
    <edge id=":1277945663_0" function="internal">
        <lane id=":1277945663_0_0" index="0" speed="13.90" length="0.28" shape="2993.80,2461.55 2993.52,2461.56"/>
    </edge>
    <edge id=":1277945680_0" function="internal">
        <lane id=":1277945680_0_0" index="0" speed="13.90" length="0.90" shape="2980.73,2462.32 2980.46,2462.33 2980.28,2462.31 2980.10,2462.25 2979.87,2462.13"/>
    </edge>
    <edge id=":1277946732_0" function="internal">
        <lane id=":1277946732_0_0" index="0" speed="13.90" length="0.27" shape="2914.17,2431.05 2913.95,2430.90"/>
    </edge>
    <edge id=":1277984546_0" function="internal">
        <lane id=":1277984546_0_0" index="0" speed="13.90" length="0.30" shape="3391.19,2423.13 3390.89,2423.16"/>
    </edge>
    <edge id=":1277984552_0" function="internal">
        <lane id=":1277984552_0_0" index="0" speed="13.90" length="0.30" shape="3635.91,2392.73 3635.62,2392.77"/>
    </edge>
    <edge id=":1277984610_0" function="internal">
        <lane id=":1277984610_0_0" index="0" speed="13.90" length="0.30" shape="3535.69,2404.89 3535.39,2404.92"/>
    </edge>
    <edge id=":1277984621_0" function="internal">
        <lane id=":1277984621_0_0" index="0" speed="13.90" length="0.10" shape="3409.42,2420.71 3409.42,2420.71"/>
    </edge>
    <edge id=":1277984635_0" function="internal">
        <lane id=":1277984635_0_0" index="0" speed="13.90" length="0.10" shape="3437.99,2416.92 3437.99,2416.92"/>
    </edge>
    <edge id=":1277984655_0" function="internal">
        <lane id=":1277984655_0_0" index="0" speed="13.90" length="0.30" shape="3763.74,2377.74 3763.44,2377.77"/>
    </edge>
    <edge id=":1277984670_0" function="internal">
        <lane id=":1277984670_0_0" index="0" speed="13.90" length="0.30" shape="3519.70,2406.83 3519.40,2406.86"/>
    </edge>
    <edge id=":1277984684_0" function="internal">
        <lane id=":1277984684_0_0" index="0" speed="13.90" length="0.29" shape="3627.35,2393.66 3627.07,2393.70"/>
    </edge>
    <edge id=":1277984706_0" function="internal">
        <lane id=":1277984706_0_0" index="0" speed="13.90" length="0.30" shape="3528.01,2405.81 3527.72,2405.85"/>
    </edge>
    <edge id=":1277984720_0" function="internal">
        <lane id=":1277984720_0_0" index="0" speed="13.90" length="0.29" shape="3455.08,2414.65 3454.79,2414.69"/>
    </edge>
    <edge id=":1279001028_0" function="internal">
        <lane id=":1279001028_0_0" index="0" speed="13.90" length="0.10" shape="3295.95,2435.21 3295.95,2435.21"/>
    </edge>
    <edge id=":1281079287_0" function="internal">
        <lane id=":1281079287_0_0" index="0" speed="13.90" length="0.10" shape="8509.17,2516.91 8509.17,2516.91"/>
    </edge>
    <edge id=":1283618030_0" function="internal">
        <lane id=":1283618030_0_0" index="0" speed="13.90" length="0.30" shape="8489.86,2497.43 8489.65,2497.21"/>
    </edge>
    <edge id=":1283628999_0" function="internal">
        <lane id=":1283628999_0_0" index="0" speed="13.90" length="0.29" shape="8532.96,2506.13 8532.76,2506.34"/>
    </edge>
    <edge id=":128684578_0" function="internal">
        <lane id=":128684578_0_0" index="0" speed="13.90" length="0.10" shape="8250.64,2427.48 8250.59,2427.53"/>
    </edge>
    <edge id=":128874949_0" function="internal">
        <lane id=":128874949_0_0" index="0" speed="13.90" length="0.30" shape="12662.16,2482.79 12661.86,2482.83"/>
    </edge>
    <edge id=":128874985_0" function="internal">
        <lane id=":128874985_0_0" index="0" speed="13.90" length="0.10" shape="12581.55,2491.87 12581.55,2491.87"/>
    </edge>
    <edge id=":128876909_0" function="internal">
        <lane id=":128876909_0_0" index="0" speed="13.90" length="0.29" shape="12228.51,2224.55 12228.56,2224.84"/>
    </edge>
    <edge id=":128882501_0" function="internal">
        <lane id=":128882501_0_0" index="0" speed="13.90" length="0.30" shape="12251.22,2448.46 12250.92,2448.49"/>
    </edge>
    <edge id=":128882514_0" function="internal">
        <lane id=":128882514_0_0" index="0" speed="13.90" length="2.64" shape="12331.91,2517.50 12331.18,2517.47 12330.64,2517.22 12330.30,2516.73 12330.14,2516.02"/>
    </edge>
    <edge id=":128893036_0" function="internal">
        <lane id=":128893036_0_0" index="0" speed="13.90" length="0.24" shape="13051.22,2410.80 13051.03,2410.95"/>
    </edge>
    <edge id=":129279422_0" function="internal">
        <lane id=":129279422_0_0" index="0" speed="13.90" length="2.54" shape="11859.11,2485.46 11858.44,2485.65 11857.99,2486.00 11857.75,2486.53 11857.74,2487.22"/>
    </edge>
    <edge id=":129279518_0" function="internal">
        <lane id=":129279518_0_0" index="0" speed="13.90" length="6.21" shape="12058.63,2466.42 12052.45,2466.99"/>
    </edge>
    <edge id=":129279518_1" function="internal">
        <lane id=":129279518_1_0" index="0" speed="13.90" length="1.55" shape="12055.26,2463.61 12055.19,2464.98 12055.11,2465.14"/>
    </edge>
    <edge id=":129279518_2" function="internal">
        <lane id=":129279518_2_0" index="0" speed="13.90" length="3.47" shape="12055.11,2465.14 12054.69,2466.01 12053.78,2466.68 12052.45,2466.99"/>
    </edge>
    <edge id=":129279537_0" function="internal">
        <lane id=":129279537_0_0" index="0" speed="13.90" length="0.10" shape="12049.18,2392.48 12049.18,2392.48"/>
    </edge>
    <edge id=":129279833_0" function="internal">
        <lane id=":129279833_0_0" index="0" speed="13.90" length="2.54" shape="12044.61,2320.70 12043.93,2320.87 12043.47,2321.22 12043.22,2321.74 12043.18,2322.43"/>
    </edge>
    <edge id=":129288610_0" function="internal">
        <lane id=":129288610_0_0" index="0" speed="13.90" length="0.10" shape="12008.60,1973.24 12008.60,1973.24"/>
    </edge>
    <edge id=":129291065_0" function="internal">
        <lane id=":129291065_0_0" index="0" speed="13.90" length="0.30" shape="12071.65,1967.16 12071.35,1967.19"/>
    </edge>
    <edge id=":129291097_0" function="internal">
        <lane id=":129291097_0_0" index="0" speed="13.90" length="0.13" shape="12132.38,1961.48 12132.25,1961.50"/>
    </edge>
    <edge id=":129546479_0" function="internal">
        <lane id=":129546479_0_0" index="0" speed="13.90" length="0.26" shape="5155.25,1523.63 5154.99,1523.66"/>
    </edge>
    <edge id=":129546480_0" function="internal">
        <lane id=":129546480_0_0" index="0" speed="13.90" length="0.54" shape="5120.92,1532.11 5120.79,1532.20 5120.69,1532.25 5120.58,1532.29 5120.43,1532.33"/>
    </edge>
    <edge id=":129546974_0" function="internal">
        <lane id=":129546974_0_0" index="0" speed="13.90" length="0.11" shape="5136.29,1526.21 5136.18,1526.23"/>
    </edge>
    <edge id=":129546975_0" function="internal">
        <lane id=":129546975_0_0" index="0" speed="13.90" length="0.63" shape="5127.05,1528.11 5126.87,1528.15 5126.74,1528.19 5126.63,1528.25 5126.47,1528.35"/>
    </edge>
    <edge id=":129548031_0" function="internal">
        <lane id=":129548031_0_0" index="0" speed="13.90" length="0.25" shape="5535.69,1482.41 5535.44,1482.44"/>
    </edge>
    <edge id=":129548032_0" function="internal">
        <lane id=":129548032_0_0" index="0" speed="13.90" length="0.26" shape="5493.22,1488.24 5492.96,1488.27"/>
    </edge>
    <edge id=":129548034_0" function="internal">
        <lane id=":129548034_0_0" index="0" speed="13.90" length="0.28" shape="5435.60,1494.49 5435.32,1494.52"/>
    </edge>
    <edge id=":129548035_0" function="internal">
        <lane id=":129548035_0_0" index="0" speed="13.90" length="0.28" shape="5394.69,1498.10 5394.41,1498.13"/>
    </edge>
    <edge id=":129549424_0" function="internal">
        <lane id=":129549424_0_0" index="0" speed="13.90" length="0.59" shape="6471.62,1392.10 6471.50,1392.22 6471.40,1392.29 6471.29,1392.35 6471.13,1392.41"/>
    </edge>
    <edge id=":129551095_0" function="internal">