<routes><vType accel="4.4" decel="4.6" id="Car0" length="20.8" maxSpeed="90" sigma="0.847183118954" /><vType accel="1.2" decel="4.8" id="Car1" length="6.9" maxSpeed="77" sigma="0.515392000339" /><vType accel="2.5" decel="7.8" id="Car2" length="14.8" maxSpeed="94" sigma="0.649968569963" /><vType accel="4.5" decel="4.7" id="Car3" length="21.3" maxSpeed="104" sigma="0.22722427845" /><vType accel="1.4" decel="6.7" id="Car4" length="12.9" maxSpeed="115" sigma="0.205487713315" /><vType accel="4.3" decel="3.3" id="Car5" length="5.3" maxSpeed="113" sigma="0.587288459301" /><vType accel="2.0" decel="2.7" id="Car6" length="17.2" maxSpeed="101" sigma="0.899569125823" /><vType accel="3.9" decel="5.6" id="Car7" length="23.5" maxSpeed="94" sigma="0.0662488215696" /><vType accel="2.6" decel="7.4" id="Car8" length="11.1" maxSpeed="70" sigma="0.312944897278" /><vType accel="1.2" decel="5.1" id="Car9" length="9.6" maxSpeed="87" sigma="0.218429208295" /><vType accel="4.3" decel="6.2" id="Car10" length="5.2" maxSpeed="81" sigma="0.777576843754" /><vType accel="3.6" decel="6.1" id="Car11" length="6.3" maxSpeed="63" sigma="0.959368649778" /><vType accel="1.9" decel="2.5" id="Car12" length="22.9" maxSpeed="72" sigma="0.275615177384" /><vType accel="4.9" decel="4.9" id="Car13" length="8.9" maxSpeed="108" sigma="0.57155128787" /><vType accel="3.2" decel="4.7" id="Car14" length="14.8" maxSpeed="98" sigma="0.198838333308" /><vType accel="3.0" decel="5.0" id="Car15" length="22.0" maxSpeed="107" sigma="0.976229736509" /><vType accel="3.5" decel="7.3" id="Car16" length="16.8" maxSpeed="114" sigma="0.88945037635" /><vType accel="2.4" decel="3.9" id="Car17" length="10.1" maxSpeed="72" sigma="0.847688554488" /><vType accel="1.8" decel="3.0" id="Car18" length="20.8" maxSpeed="77" sigma="0.424582184897" /><vType accel="1.5" decel="4.5" id="Car19" length="17.5" maxSpeed="91" sigma="0.527636454171" /><vType accel="1.5" decel="4.5" id="back_car" length="17.5" maxSpeed="91" sigma="0.527636454171" /><route edges="1928298965_313441047 313441047_313440696 313440696_313254247 313254247_313254248 313254248_313254135 313254135_313254237 313254237_313254107 313254107_313254089 313254089_313140253 313140253_313140004 313140004_313140309 313140309_313140381 313140381_313140108 313140108_670001388 670001388_313140003 313140003_4889662608 4889662608_313140000 313140000_310001316 310001316_5315879306 5315879306_310001318 310001318_530329329 530329329_530329237 530329237_891118965 891118965_530329116 530329116_604125630 604125630_604125629 604125629_263991627 263991627_604125627 604125627_604125569 604125569_604125568 604125568_604125566 604125566_604125565 604125565_247297073 247297073_604125564 604125564_263991626 263991626_604125563 604125563_247297074 247297074_604125561 604125561_604125560 604125560_5315895600 5315895600_247297075 247297075_5315895599 5315895599_604125504 604125504_604125503 604125503_604125472 604125472_604125471 604125471_604125491 604125491_263991631 263991631_3951079467 3951079467_309977587 309977587_263991611 263991611_309977442 309977442_309977425 309977425_263991609 263991609_1657066768 1657066768_4679496733 4679496733_1657066780 1657066780_1657066700 1657066700_1657066749 1657066749_1657066765 1657066765_1657066770 1657066770_1657066724 1657066724_4679496786 4679496786_3811090737 3811090737_4679496788 4679496788_4679496889 4679496889_4679496890 4679496890_4679496891 4679496891_4679496783 4679496783_4679496782 4679496782_995942478 995942478_2247591096 2247591096_127390268 127390268_2247672420 2247672420_4679496898 4679496898_2247591101 2247591101_2247672417 2247672417_2247591117 2247591117_876910906 876910906_309984697 309984697_21643741 21643741_309989573 309989573_309989084 309989084_1657067339 1657067339_309988225 309988225_2247662465 2247662465_1657067341 1657067341_309971077 309971077_309985025 309985025_309970358 309970358_309970191 309970191_2080740198 2080740198_3207124707 3207124707_309969854 309969854_309981741 309981741_309969575 309969575_2245347107 2245347107_309969348 309969348_309969259 309969259_304701495 304701495_304701503 304701503_3224362684 3224362684_1487228141 1487228141_1487228084 1487228084_1487228003 1487228003_1487228036 1487228036_1487228148 1487228148_1487228031 1487228031_4169720288 4169720288_1487227988 1487227988_29936553 29936553_4169720259 4169720259_309978787 309978787_4288151637 4288151637_1522566362 1522566362_1522834394 1522834394_1522566359 1522566359_1522566389 1522566389_1522566382 1522566382_1522566380 1522566380_1522566247 1522566247_1522566154 1522566154_1522566120 1522566120_1522566282 1522566282_1522834348 1522834348_210772014 210772014_1487228045 1487228045_31477199 31477199_1487228165 1487228165_127416559 127416559_537510271 537510271_1487227942 1487227942_1487227922 1487227922_1487227980 1487227980_537510288 537510288_1522834459 1522834459_1522834387 1522834387_1522834443 1522834443_1522834363 1522834363_1522834358 1522834358_1522834390 1522834390_1522839071 1522839071_1522834368 1522834368_1522566181 1522566181_304700483 304700483_3205511506 3205511506_3205511507 3205511507_214092423 214092423_214092402 214092402_304700571 304700571_214092382 214092382_1705365719 1705365719_1426680625 1426680625_1426680623 1426680623_1426680632 1426680632_1426680635 1426680635_1426680634 1426680634_1426680629 1426680629_1426680640 1426680640_1426680638 1426680638_1426680628 1426680628_214092345 214092345_214092328 214092328_214092311 214092311_2421353393 2421353393_2421353374 2421353374_214124424 214124424_2421353387 2421353387_2421353388 2421353388_2421353395 2421353395_2421353381 2421353381_2421353394 2421353394_2421353390 2421353390_214092477 214092477_214092481 214092481_541122878 541122878_31477183 31477183_5546311686 5546311686_740374973 740374973_114268737 114268737_299026732 299026732_2567155992 2567155992_541122843 541122843_608962184 608962184_541122905 541122905_906234098 906234098_906234090 906234090_906234099 906234099_906234081 906234081_906234088 906234088_906234083 906234083_906234091 906234091_906234096 906234096_906234093 906234093_128893036 128893036_31477178 31477178_31477177 31477177_31477176 31477176_4698484056 4698484056_561538868 561538868_31477175 31477175_305909758 305909758_31477174 31477174_906234095 906234095_3067843936 3067843936_827113739 827113739_128874949 128874949_4698523258 4698523258_128874985 128874985_305913666 305913666_151451933 151451933_305913661 305913661_305913663 305913663_128882514 128882514_1519470746 1519470746_31477172 31477172_1519471034 1519471034_319860976 319860976_385026689 385026689_128882501 128882501_129279518 129279518_1033063252 1033063252_129279537 129279537_385026714 385026714_129279833 129279833_2005992020 2005992020_128876884 128876884_2005995564 2005995564_128876893 128876893_746340967 746340967_3121574837 3121574837_746340949 746340949_129291065 129291065_583473314 583473314_3830161559 3830161559_224763560 224763560_224757682 224757682_224761673 224761673_224757641 224757641_224761617 224761617_224738476 224738476_222958329 222958329_248969196 248969196_222957430 222957430_223007282 223007282_493051199 493051199_493051200 493051200_3054477759 3054477759_2859255484 2859255484_356471554 356471554_356448968 356448968_356449290 356449290_356448987 356448987_301548222 301548222_372999711 372999711_222975383 222975383_332152166 332152166_3775020762 3775020762_332152172 332152172_4936948366 4936948366_3775019752 3775019752_233555341 233555341_2485925265 2485925265_527842694 527842694_30220702 30220702_224750434 224750434_224750388 224750388_2358071077 2358071077_628761345 628761345_2368035914 2368035914_269335260 269335260_30945575 30945575_3419339847 3419339847_3937111753 3937111753_224750232 224750232_30287465 30287465_3419344120 3419344120_3419344115 3419344115_4283908115 4283908115_2189358931 2189358931_2318333325 2318333325_2189358929 2189358929_2189358901 2189358901_4297530214 4297530214_30287464 30287464_4297530210 4297530210_652430413 652430413_233275077 233275077_652430415 652430415_233314824 233314824_4294474621 4294474621_2200514713 2200514713_2797986652 2797986652_4294474620 4294474620_2797986650 2797986650_4294474622 4294474622_2797986651 2797986651_2200514710 2200514710_767710278 767710278_371960982 371960982_371972632 371972632_493873197 493873197_493873198 493873198_214146420 214146420_767594764 767594764_767594759 767594759_767594763 767594763_214146325 214146325_566892219 566892219_371973419 371973419_371964317 371964317_767752596 767752596_3199635545 3199635545_30943327 30943327_34160610 34160610_3933097956 3933097956_767671809 767671809_319157918 319157918_767671454 767671454_319157922 319157922_30943326 30943326_30287383 30287383_3933097953 3933097953_319157881 319157881_471341054 471341054_30943325 30943325_1985549836 1985549836_3933090380 3933090380_2023894041 2023894041_317536476 317536476_1725216746 1725216746_3933090549 3933090549_1725216706 1725216706_1725216611 1725216611_356215182 356215182_356215176 356215176_356215189 356215189_4719566474 4719566474_1492410155 1492410155_1900234214 1900234214_1492410199 1492410199_1492410189 1492410189_1492410192 1492410192_1492410146 1492410146_1492410212 1492410212_1492169325 1492169325_1492169330 1492169330_2992062893 2992062893_1492169253 1492169253_1492169261 1492169261_1492169336 1492169336_1492169348 1492169348_1492169335 1492169335_1879269418 1879269418_1996608006 1996608006_257506658 257506658_2185303481 2185303481_1881118510 1881118510_33238480 33238480_1888086803 1888086803_312719435 312719435_312719437 312719437_5427944926 5427944926_52600109 52600109_5427967046 5427967046_5427967047 5427967047_5427967048 5427967048_1877472371 1877472371_1879206771 1879206771_1879206769 1879206769_245493801 245493801_245493800 245493800_364329268 364329268_364329206 364329206_1879206776 1879206776_955611519 955611519_871096410 871096410_1953967173 1953967173_5427930595 5427930595_3947038080 3947038080_5425783496 5425783496_880187088 880187088_778827462 778827462_778826514 778826514_778827730 778827730_778827731 778827731_778827733 778827733_778827735 778827735_778827738 778827738_778828513 778828513_778828640 778828640_778828638 778828638_778828636 778828636_30240836 30240836_1691663877 1691663877_30240835 30240835_1691663879 1691663879_1691663884 1691663884_4326586173 4326586173_4326586172 4326586172_1691663881 1691663881_1691663876 1691663876_30240831 30240831_30993509 30993509_777905274 777905274_777905273 777905273_1283628988 1283628988_1545387676 1545387676_1545387671 1545387671_1545387649 1545387649_1545387615 1545387615_777906400 777906400_35523916 35523916_1545387619 1545387619_1492416102 1492416102_2412946052 2412946052_35523912 35523912_2984287416 2984287416_2984287415 2984287415_576757230 576757230_2984287414 2984287414_2984287413 2984287413_576757225 576757225_35523921 35523921_777807061 777807061_475511476 475511476_1686719046 1686719046_35523904 35523904_1686719017 1686719017_1686719014 1686719014_475511480 475511480_1686718998 1686718998_1686718988 1686718988_35365996 35365996_1686718973 1686718973_475511486 475511486_1686718981 1686718981_279224060 279224060_1686718993 1686718993_475511485 475511485_1686719009 1686719009_282825760 282825760_282825759 282825759_282825763 282825763_282825846 282825846_282825845 282825845_282825802 282825802_387153066 387153066_387153065 387153065_35285670 35285670_282825822 282825822_282825799 282825799_387153068 387153068_387153042 387153042_387153043 387153043_3094966839 3094966839_2365009329 2365009329_838386042 838386042_781112986 781112986_3218293524 3218293524_781137525 781137525_3222703087 3222703087_4460254044 4460254044_2207676346 2207676346_4460254043 4460254043_781099251 781099251_3394776632 3394776632_3222703084 3222703084_3222703083 3222703083_137154180 137154180_3222703085 3222703085_137154158 137154158_137154123 137154123_3222703081 3222703081_3222703080 3222703080_1686695072 1686695072_1686695067 1686695067_1686695063 1686695063_580026120 580026120_127588852 127588852_781145741 781145741_2206276200 2206276200_125386156 125386156_137148242 137148242_95554473 95554473_3907441680 3907441680_251083833 251083833_3790886017 3790886017_306383990 306383990_3790886018 3790886018_306383987 306383987_306383985 306383985_3790886016 3790886016_2142179147 2142179147_95554476 95554476_3907441682 3907441682_95559042 95559042_95554477 95554477_95554478 95554478_95554479 95554479_95554604 95554604_95562834 95562834_95562833 95562833_95562832 95562832_2501238127 2501238127_95562831 95562831_95562829 95562829_95562828 95562828_95562827 95562827_95562826 95562826_95562825 95562825_95562823 95562823_95569469 95569469_202484608 202484608_95562822 95562822_95562821 95562821_3326880146 3326880146_3326880160 3326880160_3326880162 3326880162_3326880155 3326880155_3326880148 3326880148_3326880153 3326880153_130042866 130042866_202520404 202520404_130042865 130042865_130042864 130042864_130042863 130042863_130042862 130042862_130042861 130042861_130042860 130042860_130042859 130042859_130042858 130042858_130042857 130042857_130042856 130042856_130042855 130042855_202519507 202519507_130042854 130042854_130042853 130042853_130042852 130042852_130042851 130042851_130042850 130042850_130042849 130042849_130042848 130042848_3790964227 3790964227_130042847 130042847_202661082 202661082_130042845 130042845_130042844 130042844_130042935 130042935_4273062718 4273062718_130042842 130042842_130042841 130042841_130042840 130042840_130042839 130042839_2479076503 2479076503_130044432 130044432_130044430 130044430_130043644 130043644_3790949326 3790949326_3790949327 3790949327_3790949328 3790949328_3790949329 3790949329_3790949330 3790949330_3790949331 3790949331_583197079 583197079_622959760 622959760_130042127 130042127_5536422989 5536422989_622959751 622959751_249996725 249996725_30942237 30942237_314470621 314470621_30942236 30942236_4486060215 4486060215_250043587 250043587_2299087302 2299087302_2367405514 2367405514_2299087303 2299087303_2382446762 2382446762_622950897 622950897_2464386015 2464386015_2464386018 2464386018_2464386020 2464386020_2382446757 2382446757_1277984560 1277984560_1277984630 1277984630_1277984596 1277984596_622950875 622950875_1277984552 1277984552_1277984684 1277984684_1277984610 1277984610_1277984706 1277984706_1277984670 1277984670_323098904 323098904_2471245050 2471245050_1277984720 1277984720_1277984635 1277984635_75105959 75105959_1277984688 1277984688_4805006025 4805006025_1277984625 1277984625_75107415 75107415_1277984699 1277984699_3945142012 3945142012_3945142011 3945142011_4805006022 4805006022_4533205186 4533205186_4533205185 4533205185_1277943056 1277943056_1277945619 1277945619_1277945630 1277945630_1277945614 1277945614_1277945646 1277945646_1277945628 1277945628_1277945656 1277945656_1277945663 1277945663_1277945680 1277945680_1277945623 1277945623_1277945612 1277945612_1277945635 1277945635_1277946732 1277946732_671323571 671323571_832357753 832357753_36022343 36022343_3215374641 3215374641_3215374640 3215374640_832391719 832391719_253752874 253752874_1833142699 1833142699_36022342 36022342_3359255433 3359255433_3359255435 3359255435_2268148328 2268148328_320846340 320846340_2268148332 2268148332_36022341 36022341_2268143517 2268143517_36022340 36022340_253549824 253549824_36022339 36022339_36022338 36022338_3855648395 3855648395_36022337 36022337_320846296 320846296_3855648786 3855648786_36022336 36022336_36022335 36022335_253546237 253546237_36022334 36022334_36022333 36022333_3359255438 3359255438_3855646545 3855646545_250291504 250291504_36022332 36022332_3359255471 3359255471_36022331 36022331_2612216109 2612216109_2612216101 2612216101_36022330 36022330_2612216110 2612216110_2612216107 2612216107_2612216111 2612216111_370708113 370708113_370708114 370708114_370708264 370708264_370708343 370708343_370708381 370708381_320852621 320852621_1833869065 1833869065_2612216102 2612216102_370708433 " id="route0" /><route edges="1928298965_313441047 313441047_313440696 313440696_313254247 313254247_313254248 313254248_313254135 313254135_313254237 313254237_313254107 313254107_313254089 313254089_313140253 313140253_313140255 313140255_313140297 313140297_875512291 875512291_875512290 875512290_673083767 673083767_673083766 673083766_673083764 673083764_313140107 313140107_313140045 313140045_313248462 313248462_21643809 21643809_313248453 313248453_462859358 462859358_865433478 865433478_462860022 462860022_247297072 247297072_530329329 530329329_530329237 530329237_604125669 604125669_310001315 310001315_4695022131 4695022131_4695022403 4695022403_310001313 310001313_310001304 310001304_309977100 309977100_2123710638 2123710638_2123710633 2123710633_370482123 370482123_2123710644 2123710644_370482115 370482115_2123710641 2123710641_370482120 370482120_2123710643 2123710643_2123710634 2123710634_370482117 370482117_309977235 309977235_309977505 309977505_309977300 309977300_309977428 309977428_309977132 309977132_263991606 263991606_4679496738 4679496738_3996716075 3996716075_3996716076 3996716076_4679496928 4679496928_4679496929 4679496929_4679496930 4679496930_4679496931 4679496931_4679496932 4679496932_4679496933 4679496933_4679496934 4679496934_4679496935 4679496935_876910942 876910942_4679496915 4679496915_876910914 876910914_876910934 876910934_876910894 876910894_2247594769 2247594769_876910906 876910906_309984697 309984697_21643741 21643741_309989573 309989573_309989084 309989084_1657067339 1657067339_309988225 309988225_2247662465 2247662465_1657067341 1657067341_309971077 309971077_309985025 309985025_309970358 309970358_309970191 309970191_2080740198 2080740198_3207124707 3207124707_309969854 309969854_309981741 309981741_309969575 309969575_2245347107 2245347107_309969348 309969348_309969259 309969259_304701495 304701495_304701503 304701503_3224362684 3224362684_1487228141 1487228141_1487228084 1487228084_1487228003 1487228003_1487228036 1487228036_1487228148 1487228148_1487228031 1487228031_4169720288 4169720288_1487227988 1487227988_29936553 29936553_4169720259 4169720259_309978787 309978787_4288151637 4288151637_1522566362 1522566362_1522834394 1522834394_1522834395 1522834395_1522834446 1522834446_1522834429 1522834429_1522834316 1522834316_1522834336 1522834336_1522834355 1522834355_31477188 31477188_31477187 31477187_31477186 31477186_2940375840 2940375840_370477432 370477432_214122372 214122372_370477489 370477489_31477185 31477185_31477184 31477184_2940375839 2940375839_370477495 370477495_214122180 214122180_214092481 214092481_541122878 541122878_31477183 31477183_5546311686 5546311686_740374973 740374973_114268737 114268737_299026732 299026732_2567155992 2567155992_541122843 541122843_608962184 608962184_541122905 541122905_906234098 906234098_906234090 906234090_906234099 906234099_906234081 906234081_906234088 906234088_906234083 906234083_906234091 906234091_906234096 906234096_906234093 906234093_906234084 906234084_906234092 906234092_906234082 906234082_906234094 906234094_906234085 906234085_2384157684 2384157684_561538868 561538868_31477175 31477175_305909758 305909758_31477174 31477174_906234095 906234095_3067843936 3067843936_827113739 827113739_128874949 128874949_4698523258 4698523258_128874985 128874985_305913666 305913666_151451933 151451933_305913661 305913661_305913663 305913663_128882514 128882514_305912827 305912827_2006034702 2006034702_2006034698 2006034698_305912820 305912820_128882501 128882501_129279518 129279518_1033063213 1033063213_1521014627 1521014627_129279422 129279422_31477171 31477171_38779052 38779052_248969197 248969197_1519470760 1519470760_227324606 227324606_356474935 356474935_227324666 227324666_356474868 356474868_30287517 30287517_356474514 356474514_356474390 356474390_227324534 227324534_356474260 356474260_227324467 227324467_356474167 356474167_227324395 227324395_384006483 384006483_1985429676 1985429676_2469585431 2469585431_1095506178 1095506178_227770398 227770398_448078442 448078442_2213981044 2213981044_227766956 227766956_31477169 31477169_2213981047 2213981047_4297530170 4297530170_385176510 385176510_233255225 233255225_3832253555 3832253555_3832262611 3832262611_233255248 233255248_233270916 233270916_385165474 385165474_233255272 233255272_361770719 361770719_361770535 361770535_361770819 361770819_361770537 361770537_233255310 233255310_4305342598 4305342598_4305342597 4305342597_2069604230 2069604230_2069604235 2069604235_2069604240 2069604240_4305342596 4305342596_630463849 630463849_233262762 233262762_302571121 302571121_683138398 683138398_418987991 418987991_302132742 302132742_580090245 580090245_4297530202 4297530202_233262696 233262696_233314946 233314946_233314999 233314999_243645169 243645169_233314776 233314776_2204643315 2204643315_364869016 364869016_233314797 233314797_233314893 233314893_364868868 364868868_233314914 233314914_233314833 233314833_233314809 233314809_4294474619 4294474619_1367589913 1367589913_4294474618 4294474618_1367589915 1367589915_1367589914 1367589914_395285982 395285982_767693486 767693486_767710271 767710271_501019000 501019000_501018995 501018995_767594705 767594705_767594704 767594704_767594703 767594703_371972632 371972632_371972631 371972631_371972630 371972630_493873191 493873191_371972628 371972628_767738875 767738875_371972627 371972627_767738874 767738874_371972625 371972625_767738873 767738873_371972624 371972624_371972623 371972623_767585644 767585644_767585645 767585645_767586330 767586330_493873188 493873188_493873187 493873187_767586331 767586331_767586332 767586332_371967853 371967853_767739011 767739011_371967852 371967852_371967118 371967118_767668329 767668329_30220444 30220444_34157905 34157905_3933095115 3933095115_319157897 319157897_30287325 30287325_319157055 319157055_319157925 319157925_767737811 767737811_30943326 30943326_30287383 30287383_3933097953 3933097953_319157881 319157881_471341054 471341054_30943325 30943325_1985549836 1985549836_1985549834 1985549834_3933090381 3933090381_319157894 319157894_291210712 291210712_3208518301 3208518301_3208518302 3208518302_3208518303 3208518303_291210710 291210710_1725216871 1725216871_33675682 33675682_1725216895 1725216895_1985546059 1985546059_1900234216 1900234216_2183273514 2183273514_2183290177 2183290177_2183290172 2183290172_2183290179 2183290179_2183290174 2183290174_2183273515 2183273515_3933094369 3933094369_1900234252 1900234252_3213448163 3213448163_3213448164 3213448164_3213448167 3213448167_3213448170 3213448170_2190483585 2190483585_3933094366 3933094366_2190483578 2190483578_1700628267 1700628267_2190622034 2190622034_774518620 774518620_774518617 774518617_774519013 774519013_711369697 711369697_711359068 711359068_711369366 711369366_711358863 711358863_711358867 711358867_708717121 708717121_2991935465 2991935465_708717112 708717112_777753012 777753012_777700831 777700831_774546107 774546107_777704431 777704431_777697587 777697587_777703071 777703071_777743666 777743666_777703067 777703067_777746939 777746939_777710193 777710193_777721838 777721838_777710168 777710168_777787206 777787206_777778401 777778401_777778398 777778398_777787198 777787198_777778391 777778391_781005210 781005210_777778351 777778351_777778344 777778344_781005199 781005199_777778387 777778387_777778385 777778385_777775931 777775931_777775583 777775583_777778380 777778380_777778529 777778529_777778530 777778530_780982646 780982646_780979435 780979435_702465424 702465424_702460953 702460953_777773681 777773681_3215191993 3215191993_777773675 777773675_777773673 777773673_777776793 777776793_777776791 777776791_777776726 777776726_3481124170 3481124170_387153031 387153031_801840602 801840602_30942795 30942795_30942992 30942992_387153091 387153091_30942993 30942993_3394768955 3394768955_306904051 306904051_3215192013 3215192013_306904050 306904050_306904049 306904049_306904048 306904048_3215192015 3215192015_306904043 306904043_332546227 332546227_30942262 30942262_3215192362 3215192362_3215192047 3215192047_3215192361 3215192361_3215192059 3215192059_3215192057 3215192057_3215192048 3215192048_3215192053 3215192053_767729190 767729190_3215192054 3215192054_4655129025 4655129025_127639607 127639607_387153102 387153102_305106865 305106865_3970811103 3970811103_305106971 305106971_296027680 296027680_1132070481 1132070481_296027697 296027697_26680093 26680093_1132070489 1132070489_1132070467 1132070467_26680091 26680091_1132070442 1132070442_1132070468 1132070468_26680090 26680090_3313036364 3313036364_3313036363 3313036363_3970811101 3970811101_709707024 709707024_709707019 709707019_129557025 129557025_129557023 129557023_41675613 41675613_400738477 400738477_129557021 129557021_41675612 41675612_129557020 129557020_571459744 571459744_634775467 634775467_1224872742 1224872742_41675609 41675609_129554698 129554698_41675607 41675607_129554697 129554697_710042044 710042044_710042045 710042045_441030950 441030950_441030951 441030951_441030952 441030952_506045555 506045555_560997189 560997189_441030953 441030953_634783967 634783967_310727778 310727778_310727777 310727777_310727776 310727776_310727774 310727774_560997692 560997692_310727773 310727773_560997297 560997297_3797989291 3797989291_310727772 310727772_560997317 560997317_560997597 560997597_41667991 41667991_1224872741 1224872741_304710871 304710871_304710870 304710870_3285633579 3285633579_5320613467 5320613467_5322615232 5322615232_76459258 76459258_4415760632 4415760632_3285633576 3285633576_2172718107 2172718107_76459296 76459296_3285623814 3285623814_373646060 373646060_373645976 373645976_373645935 373645935_3285622633 3285622633_373643824 373643824_2613010004 2613010004_2613010002 2613010002_373644846 373644846_3285622632 3285622632_583067729 583067729_3285622626 3285622626_75086429 75086429_2613010001 2613010001_202581663 202581663_202673221 202673221_202676494 202676494_4067315446 4067315446_202581660 202581660_2613009999 2613009999_2613009997 2613009997_202581658 202581658_295874707 295874707_75086425 75086425_3285622635 3285622635_3285622634 3285622634_202578382 202578382_202578380 202578380_295874836 295874836_3176128935 3176128935_202567088 202567088_122730503 122730503_5417879355 5417879355_4740947182 4740947182_4740947179 4740947179_5495352698 5495352698_4740947181 4740947181_5495352699 5495352699_122730498 122730498_3363082659 3363082659_122728026 122728026_5417879353 5417879353_4969348348 4969348348_4969348349 4969348349_4969348320 4969348320_4969348221 4969348221_4969348269 4969348269_4969348262 4969348262_4969348300 4969348300_827129293 827129293_122727218 122727218_344812998 344812998_583185523 583185523_583187050 583187050_583186811 583186811_1725233607 1725233607_583185524 583185524_2142166068 2142166068_122727211 122727211_122725511 122725511_2097584295 2097584295_5033687753 5033687753_4752115386 4752115386_4752128232 4752128232_2097585146 2097585146_2097585148 2097585148_2097585147 2097585147_4785338272 4785338272_348706911 348706911_583185596 583185596_250007199 250007199_2515069238 2515069238_2515069235 2515069235_4949987623 4949987623_4949987397 4949987397_250008770 250008770_250008516 250008516_4949987399 4949987399_4949987625 4949987625_4087489254 4087489254_616525979 616525979_4087489253 4087489253_250291196 250291196_663516316 663516316_4903344787 4903344787_32476610 32476610_581229787 581229787_321530548 321530548_2097588139 2097588139_2299094544 2299094544_4789353358 4789353358_4789353370 4789353370_4789353369 4789353369_4789353368 4789353368_4789353360 4789353360_4789353357 4789353357_4789353367 4789353367_4789353366 4789353366_4789353365 4789353365_4789353364 4789353364_250291197 250291197_4789353333 4789353333_4789353350 4789353350_4789353349 4789353349_4789353348 4789353348_4789353340 4789353340_1833722819 1833722819_4789353347 4789353347_4789353346 4789353346_4789353345 4789353345_4789353344 4789353344_4789353336 4789353336_321532451 321532451_4789353337 4789353337_250291199 250291199_2515068988 2515068988_320492629 320492629_320492523 320492523_320491432 320491432_320491673 320491673_320491981 320491981_320491983 320491983_320491661 320491661_2867881404 2867881404_2867881403 2867881403_571835726 571835726_571835365 571835365_571835364 571835364_571835362 571835362_571835717 571835717_571835360 571835360_571835359 571835359_571835677 571835677_571835358 571835358_571835673 571835673_571835357 571835357_571835675 571835675_571835356 571835356_571835355 571835355_571835354 571835354_571835353 571835353_571835352 571835352_571835351 571835351_3189524835 3189524835_571835330 571835330_3189524834 3189524834_3189524833 3189524833_571835329 571835329_3189524832 3189524832_320488742 320488742_320486479 320486479_320490330 320490330_320488710 320488710_2102862929 2102862929_2102862926 2102862926_2102862949 2102862949_2102862938 2102862938_2102862940 2102862940_2102862955 2102862955_2102862923 2102862923_2102862979 2102862979_2102862945 2102862945_2102862936 2102862936_2102862947 2102862947_2102862924 2102862924_2102862927 2102862927_2102862974 2102862974_2102862921 2102862921_320490291 320490291_320490263 320490263_2102862986 2102862986_253539106 253539106_36022330 36022330_2612216110 2612216110_2612216107 2612216107_2612216111 2612216111_370708113 370708113_370708114 370708114_370708264 370708264_370708343 370708343_370708381 370708381_320852621 320852621_1833869065 1833869065_2612216102 2612216102_370708433 " id="route1" /><route edges="1928298965_313441110 313441110_313440691 313440691_313441737 313441737_313254240 313254240_313139758 313139758_1928315581 1928315581_1928315592 1928315592_1928315579 1928315579_1928315589 1928315589_1928315553 1928315553_1928315555 1928315555_1928315558 1928315558_1928315573 1928315573_1928315552 1928315552_1928315586 1928315586_313139789 313139789_313254109 313254109_313139805 313139805_313254077 313254077_313139816 313139816_313140298 313140298_313139836 313139836_673083815 673083815_313139946 313139946_313140141 313140141_313140107 313140107_313140045 313140045_313248462 313248462_21643809 21643809_313248453 313248453_462859358 462859