<types>
	<type id="a" priority="1" numLanes="3" speed="120"/>
</types>