<nodes><node id="5546311686" x="145.013087" y="-37.8043532" /><node id="4000710669" x="145.038027" y="-37.807692" /><node id="767819790" x="144.9733521" y="-37.8031424" /><node id="4000710671" x="145.0380971" y="-37.8077858" /><node id="767819792" x="144.9729887" y="-37.8030036" /><node id="767819793" x="144.9726252" y="-37.8028203" /><node id="227770398" x="144.9849079" y="-37.7999137" /><node id="227770421" x="144.9850633" y="-37.7990396" /><node id="850722885" x="145.0379324" y="-37.8076811" /><node id="4288151637" x="145.0300905" y="-37.8070383" /><node id="4288151642" x="145.0437864" y="-37.8083295" /><node id="4288151643" x="145.043796" y="-37.8083632" /><node id="4336550011" x="144.9585923" y="-37.7980289" /><node id="4336550012" x="144.9590122" y="-37.7984477" /><node id="123338879" x="144.9273181" y="-37.7996112" /><node id="123338880" x="144.9272151" y="-37.7996451" /><node id="123338881" x="144.9261679" y="-37.7994891" /><node id="123338882" x="144.9260993" y="-37.7994552" /><node id="3783295107" x="144.9274306" y="-37.7976501" /><node id="3783295108" x="144.9292309" y="-37.798107" /><node id="767819911" x="144.9732314" y="-37.8029019" /><node id="767819912" x="144.9733266" y="-37.8030301" /><node id="60653707" x="144.9505059" y="-37.8178344" /><node id="60653712" x="144.9505662" y="-37.8179149" /><node id="306905235" x="144.9384048" y="-37.8119931" /><node id="60096664" x="144.9830828" y="-37.816911" /><node id="306905245" x="144.9383498" y="-37.8116403" /><node id="3306881184" x="144.9558159" y="-37.8118399" /><node id="2214002871" x="144.9845322" y="-37.7973474" /><node id="2214002875" x="144.9845347" y="-37.7975621" /><node id="60096725" x="144.9858463" y="-37.8186998" /><node id="2774434013" x="145.0074344" y="-37.801955" /><node id="306905310" x="144.938994" y="-37.810713" /><node id="367132897" x="144.9738332" y="-37.8092779" /><node id="306905333" x="144.9389868" y="-37.8109485" /><node id="202473725" x="144.9334558" y="-37.8040237" /><node id="371949823" x="144.9692898" y="-37.8049166" /><node id="373653770" x="144.9158538" y="-37.8077456" /><node id="4717969677" x="144.9002959" y="-37.8118549" /><node id="227508496" x="144.9593225" y="-37.8096849" /><node id="60096789" x="144.986234" y="-37.8190949" /><node id="1686695063" x="144.9438816" y="-37.8002993" /><node id="331415844" x="145.0046497" y="-37.8223252" /><node id="331415845" x="145.005095" y="-37.8223751" /><node id="4785668393" x="144.9067414" y="-37.803571" /><node id="1585403271" x="144.8913446" y="-37.8030239" /><node id="304764297" x="145.0548254" y="-37.8168364" /><node id="767820114" x="144.9731215" y="-37.8027398" /><node id="128876884" x="144.9949952" y="-37.8027541" /><node id="372998488" x="144.986353" y="-37.8090958" /><node id="4815356253" x="144.9671282" y="-37.8074224" /><node id="4815356254" x="144.9672376" y="-37.807375" /><node id="75115237" x="144.8935216" y="-37.7923944" /><node id="262930786" x="145.0196546" y="-37.8207196" /><node id="262930787" x="145.0207965" y="-37.8208562" /><node id="3163980133" x="144.9572014" y="-37.803422" /><node id="1585403283" x="144.8924375" y="-37.8033272" /><node id="5484183939" x="144.8823392" y="-37.8188401" /><node id="547586436" x="144.9844808" y="-37.813942" /><node id="547586437" x="144.9847561" y="-37.8139718" /><node id="1279000973" x="144.8968029" y="-37.7993592" /><node id="1496842654" x="144.9880745" y="-37.824339" /><node id="1496842661" x="144.9883594" y="-37.8243493" /><node id="2696446375" x="144.985371" y="-37.8117628" /><node id="767820210" x="144.9722269" y="-37.8025734" /><node id="1279001026" x="144.8981198" y="-37.7978731" /><node id="1279001028" x="144.8958036" y="-37.7993199" /><node id="1928298965" x="145.0742633" y="-37.8066668" /><node id="1279001049" x="144.8958186" y="-37.7992463" /><node id="1279001051" x="144.8969262" y="-37.7984978" /><node id="250003539" x="144.8947191" y="-37.8103262" /><node id="1279001090" x="144.8973691" y="-37.7969753" /><node id="1279001114" x="144.8960428" y="-37.7968841" /><node id="2726412379" x="144.9222157" y="-37.7950529" /><node id="2692573961" x="144.9089226" y="-37.8019331" /><node id="1888086795" x="144.9624796" y="-37.7996109" /><node id="575570514" x="144.9788056" y="-37.8234727" /><node id="575570516" x="144.9791042" y="-37.8235077" /><node id="575570519" x="144.9804399" y="-37.8236783" /><node id="575570522" x="144.9822424" y="-37.823906" /><node id="1888086800" x="144.9625401" y="-37.7999733" /><node id="1888086803" x="144.9623784" y="-37.8002432" /><node id="4428399220" x="144.8795558" y="-37.8199646" /><node id="4753916557" x="144.9290341" y="-37.7905357" /><node id="1650033303" x="145.0211078" y="-37.8192894" /><node id="1888086810" x="144.9625912" y="-37.7996237" /><node id="1650033312" x="145.0213275" y="-37.8193099" /><node id="3440804513" x="145.053543" y="-37.8132573" /><node id="1650033315" x="145.0213483" y="-37.8192225" /><node id="1650033320" x="145.0207645" y="-37.8193699" /><node id="1650033327" x="145.0207672" y="-37.8203997" /><node id="67797693" x="144.9155762" y="-37.793798" /><node id="372998848" x="144.9876645" y="-37.8092246" /><node id="1888086817" x="144.9625294" y="-37.8000178" /><node id="3738993372" x="145.0077275" y="-37.8227125" /><node id="4544561900" x="144.9729904" y="-37.8112936" /><node id="4544561901" x="144.9729459" y="-37.8113061" /><node id="4544561902" x="144.9730165" y="-37.8112864" /><node id="4544561903" x="144.9730519" y="-37.8112768" /><node id="723976949" x="145.0088923" y="-37.8113217" /><node id="777913111" x="144.9563633" y="-37.8005062" /><node id="540050219" x="144.9774519" y="-37.7986046" /><node id="540050220" x="144.9777536" y="-37.7986382" /><node id="540050221" x="144.9779443" y="-37.7986593" /><node id="1426680628" x="145.0194308" y="-37.8093139" /><node id="2700837698" x="144.9088995" y="-37.8015979" /><node id="390923076" x="144.936728" y="-37.7955675" /><node id="2631959402" x="144.9064092" y="-37.7950267" /><node id="2664366963" x="144.9579874" y="-37.7976796" /><node id="571835276" x="144.8709958" y="-37.8116563" /><node id="472236187" x="144.9661252" y="-37.8019766" /><node id="2291073956" x="144.9686766" y="-37.8080872" /><node id="571835303" x="144.8721924" y="-37.8133705" /><node id="571835304" x="144.872116" y="-37.8132603" /><node id="571835305" x="144.871939" y="-37.812917" /><node id="571835306" x="144.8717861" y="-37.8126807" /><node id="571835307" x="144.8715849" y="-37.8123809" /><node id="2291073964" x="144.9664005" y="-37.8088973" /><node id="571835309" x="144.8710847" y="-37.8117674" /><node id="571835310" x="144.870854" y="-37.8114718" /><node id="250774449" x="145.0089436" y="-37.8160237" /><node id="2291073971" x="144.9639129" y="-37.8096231" /><node id="2291073974" x="144.9627945" y="-37.8098005" /><node id="2291073975" x="144.9622759" y="-37.8099505" /><node id="2291073976" x="144.961391" y="-37.8102099" /><node id="2291073977" x="144.9612489" y="-37.8102507" /><node id="250774458" x="145.0130674" y="-37.8183864" /><node id="2291073980" x="144.9607978" y="-37.81038" /><node id="2291073983" x="144.959837" y="-37.8106585" /><node id="2291073984" x="144.9589795" y="-37.8109096" /><node id="571835329" x="144.8725314" y="-37.813763" /><node id="2291073986" x="144.958809" y="-37.810957" /><node id="2291073987" x="144.9590364" y="-37.8110331" /><node id="250774468" x="145.0128547" y="-37.8194355" /><node id="2291073989" x="144.9575123" y="-37.811333" /><node id="2291073990" x="144.9569647" y="-37.8114948" /><node id="2291073991" x="144.9564689" y="-37.8116451" /><node id="250774472" x="145.0131559" y="-37.8179658" /><node id="2209383369" x="144.9579318" y="-37.7971419" /><node id="400753610" x="144.9369169" y="-37.8095207" /><node id="400753614" x="144.93699" y="-37.8097758" /><node id="2291073999" x="144.9539446" y="-37.812372" /><node id="2291074001" x="144.9538164" y="-37.8124096" /><node id="571835347" x="144.8770032" y="-37.816207" /><node id="2291074005" x="144.9515622" y="-37.8130635" /><node id="571835356" x="144.8743731" y="-37.8143992" /><node id="571835359" x="144.8756511" y="-37.8148516" /><node id="571835360" x="144.8763753" y="-37.815002" /><node id="571835362" x="144.8765135" y="-37.815037" /><node id="571835364" x="144.8768555" y="-37.8152542" /><node id="571835365" x="144.8771143" y="-37.8154619" /><node id="571835367" x="144.8773315" y="-37.815838" /><node id="571835368" x="144.8772631" y="-37.8160477" /><node id="571835369" x="144.8770875" y="-37.8161643" /><node id="2209383402" x="144.9578254" y="-37.7970321" /><node id="1522566124" x="145.0283619" y="-37.80538" /><node id="67666925" x="144.9191368" y="-37.7933938" /><node id="67666926" x="144.917918" y="-37.7940992" /><node id="67666928" x="144.9177721" y="-37.7940449" /><node id="67666929" x="144.9176777" y="-37.7939228" /><node id="273115987" x="144.8909401" y="-37.804031" /><node id="1522566139" x="145.0258145" y="-37.8051247" /><node id="571835393" x="144.8771297" y="-37.8161363" /><node id="2207974407" x="144.9480984" y="-37.8028643" /><node id="2123710636" x="145.0551193" y="-37.8018086" /><node id="1522566159" x="145.025819" y="-37.8050905" /><node id="1522566160" x="145.0289874" y="-37.8072315" /><node id="547587095" x="144.9902428" y="-37.8135038" /><node id="1522566177" x="145.0275461" y="-37.8072177" /><node id="2340127778" x="144.950348" y="-37.7985271" /><node id="1522566180" x="145.0289345" y="-37.8066122" /><node id="1522566181" x="145.0286527" y="-37.8076585" /><node id="2340127783" x="144.9502595" y="-37.7989438" /><node id="2340127788" x="144.9502532" y="-37.7991098" /><node id="1522566189" x="145.030128" y="-37.8064868" /><node id="1522566191" x="145.0257841" y="-37.8051859" /><node id="2266563639" x="144.9536876" y="-37.8088633" /><node id="2266563642" x="144.954089" y="-37.8087118" /><node id="2266563643" x="144.9554765" y="-37.8081826" /><node id="2209383485" x="144.9574922" y="-37.7997486" /><node id="2266563649" x="144.9554533" y="-37.8082646" /><node id="2266563651" x="144.9539995" y="-37.8087371" /><node id="1522566214" x="145.0283329" y="-37.8072888" /><node id="2209383495" x="144.9576193" y="-37.7996903" /><node id="1522566220" x="145.029106" y="-37.8074439" /><node id="2266563661" x="144.9550389" y="-37.808443" /><node id="2266563662" x="144.954759" y="-37.808604" /><node id="2266563663" x="144.9548196" y="-37.8085051" /><node id="1522566225" x="145.0301583" y="-37.8063455" /><node id="1522566230" x="145.0265718" y="-37.8075368" /><node id="3506373724" x="145.0334112" y="-37.8094378" /><node id="1522566240" x="145.0283959" y="-37.8053835" /><node id="1409483875" x="144.8745738" y="-37.8143133" /><node id="1409483877" x="144.8744915" y="-37.8143783" /><node id="1409483878" x="144.8764456" y="-37.8164263" /><node id="222987367" x="144.9880745" y="-37.8067851" /><node id="1522566262" x="145.0280298" y="-37.8072495" /><node id="2209383547" x="144.9579437" y="-37.7970446" /><node id="1522566268" x="145.0293823" y="-37.8072739" /><node id="1999701128" x="144.9200579" y="-37.7933319" /><node id="1999701129" x="144.9201927" y="-37.7931189" /><node id="2209383568" x="144.9579201" y="-37.7972376" /><node id="5221319827" x="144.976571" y="-37.8183062" /><node id="1522566298" x="145.027659" y="-37.8072238" /><node id="4398351515" x="144.9671231" y="-37.8200188" /><node id="1522566317" x="145.0290832" y="-37.8073809" /><node id="1522566327" x="145.0272213" y="-37.8052454" /><node id="2247591096" x="145.0467282" y="-37.8010258" /><node id="2209383610" x="144.9575006" y="-37.7996797" /><node id="2247591101" x="145.0461477" y="-37.8012578" /><node id="2247591103" x="145.037286" y="-37.8045801" /><node id="2247591105" x="145.0372781" y="-37.8045172" /><node id="1522566341" x="145.0291146" y="-37.8075418" /><node id="2247591117" x="145.0459901" y="-37.8013141" /><node id="2247591118" x="145.0372796" y="-37.8046629" /><node id="469730517" x="144.9704664" y="-37.8205134" /><node id="304710870" x="144.9347841" y="-37.8094097" /><node id="304710871" x="144.9355051" y="-37.8095046" /><node id="1522566362" x="145.0300527" y="-37.8069793" /><node id="250479836" x="145.0064662" y="-37.8111341" /><node id="2245788893" x="145.0449458" y="-37.8084677" /><node id="2245788895" x="145.0573813" y="-37.8099937" /><node id="643990753" x="144.9886927" y="-37.8242717" /><node id="1522566375" x="145.0257738" y="-37.805292" /><node id="1522566377" x="145.0266242" y="-37.8072691" /><node id="1522566380" x="145.0300965" y="-37.8066332" /><node id="1522566381" x="145.028931" y="-37.8076495" /><node id="2245788910" x="145.0476933" y="-37.808795" /><node id="2245788915" x="145.0469016" y="-37.8087332" /><node id="1522566389" x="145.0300326" y="-37.806936" /><node id="2245788919" x="145.0489378" y="-37.8089431" /><node id="2245788924" x="145.0449397" y="-37.8084995" /><node id="2245788930" x="145.057388" y="-37.8099602" /><node id="2245788933" x="145.0495395" y="-37.8090479" /><node id="571835655" x="144.8755076" y="-37.8148929" /><node id="571835656" x="144.8750195" y="-37.8148071" /><node id="571835657" x="144.8745783" y="-37.8146651" /><node id="571835658" x="144.8743369" y="-37.8145497" /><node id="571835659" x="144.8741142" y="-37.8143833" /><node id="571835660" x="144.8739922" y="-37.8143303" /><node id="571835662" x="144.8738769" y="-37.8143166" /><node id="571835663" x="144.8735899" y="-37.8143378" /><node id="571835664" x="144.8733337" y="-37.8142488" /><node id="571835665" x="144.8730749" y="-37.8141576" /><node id="571835666" x="144.872977" y="-37.8140591" /><node id="571835667" x="144.8729515" y="-37.8138684" /><node id="571835674" x="144.874297" y="-37.8145198" /><node id="571835675" x="144.8744779" y="-37.8144519" /><node id="571835677" x="144.8756185" y="-37.8148421" /><node id="2841675040" x="144.9689175" y="-37.8080366" /><node id="2841675044" x="144.9681941" y="-37.8082466" /><node id="2841675047" x="144.9664548" y="-37.8087515" /><node id="2841675052" x="144.9658354" y="-37.8089313" /><node id="2841675059" x="144.9639591" y="-37.809476" /><node id="2841675060" x="144.9632669" y="-37.8096656" /><node id="2841675061" x="144.9632948" y="-37.8096688" /><node id="3359255433" x="144.882666" y="-37.803984" /><node id="1725203768" x="144.995205" y="-37.7984701" /><node id="571835711" x="144.8756125" y="-37.8149298" /><node id="571835717" x="144.8764719" y="-37.8150265" /><node id="571835720" x="144.8765671" y="-37.8148135" /><node id="571835721" x="144.8766888" y="-37.814814" /><node id="2181268810" x="144.9590339" y="-37.8110279" /><node id="571835726" x="144.877282" y="-37.8157122" /><node id="2583201106" x="144.9904037" y="-37.8110699" /><node id="571835731" x="144.8770452" y="-37.8161857" /><node id="1994687829" x="144.9502349" y="-37.7988574" /><node id="1994687832" x="144.9508937" y="-37.7994297" /><node id="2181268826" x="144.9687138" y="-37.8082148" /><node id="2181268830" x="144.9663962" y="-37.808888" /><node id="2181268832" x="144.9638876" y="-37.8096177" /><node id="2181268836" x="144.9662571" y="-37.8089285" /><node id="1994687855" x="144.9522349" y="-37.8007266" /><node id="348718456" x="144.8940547" y="-37.8168968" /><node id="589530515" x="144.9551762" y="-37.8216354" /><node id="1449297305" x="144.9774634" y="-37.8153946" /><node id="1895925155" x="144.9592654" y="-37.8061852" /><node id="2245395882" x="145.0379885" y="-37.8085814" /><node id="589759919" x="144.9522232" y="-37.8218293" /><node id="723970974" x="145.0060348" y="-37.8065416" /><node id="1525908932" x="144.9780021" y="-37.8232542" /><node id="249923015" x="144.9187675" y="-37.7951281" /><node id="291210710" x="144.9651055" y="-37.8068371" /><node id="2421353381" x="145.0154905" y="-37.8071315" /><node id="2520483306" x="144.9522054" y="-37.7956671" /><node id="390923760" x="144.9423237" y="-37.7958514" /><node id="1525908983" x="144.9783733" y="-37.8231366" /><node id="1525908992" x="144.9786972" y="-37.8233043" /><node id="3790964227" x="144.9170256" y="-37.8017011" /><node id="95546286" x="144.9334593" y="-37.7952275" /><node id="67634712" x="144.9177377" y="-37.7957202" /><node id="518293021" x="145.0147186" y="-37.8202129" /><node id="372999711" x="144.985559" y="-37.8070567" /><node id="296027680" x="144.9452685" y="-37.8118428" /><node id="67667489" x="144.9174324" y="-37.7940774" /><node id="304704433" x="145.0398329" y="-37.8102431" /><node id="1132070442" x="144.9433469" y="-37.8125431" /><node id="1132070443" x="144.9420656" y="-37.8119728" /><node id="1132070445" x="144.9394245" y="-37.8106104" /><node id="296027697" x="144.9447809" y="-37.8120306" /><node id="1132070451" x="144.9418662" y="-37.8118589" /><node id="1132070452" x="144.9394491" y="-37.8106761" /><node id="348718646" x="144.8947759" y="-37.814102" /><node id="296027706" x="144.946106" y="-37.8115266" /><node id="1132070459" x="144.9389256" y="-37.8103572" /><node id="1132070461" x="144.9412566" y="-37.8116351" /><node id="266733118" x="144.9906716" y="-37.8110988" /><node id="296027713" x="144.9467488" y="-37.811306" /><node id="1132070466" x="144.9390892" y="-37.8103795" /><node id="1132070467" x="144.9435681" y="-37.8125106" /><node id="1132070468" x="144.9432561" y="-37.81254" /><node id="1132070472" x="144.942872" y="-37.812447" /><node id="1132070474" x="144.9392049" y="-37.8103795" /><node id="1132070475" x="144.9387888" y="-37.8103328" /><node id="1132070477" x="144.9413365" y="-37.8122614" /><node id="1132070479" x="144.9394178" y="-37.8105649" /><node id="1132070480" x="144.9411325" y="-37.8123705" /><node id="1132070481" x="144.9450824" y="-37.8119128" /><node id="1132070484" x="144.9394191" y="-37.8105225" /><node id="1132070487" x="144.9424858" y="-37.8122231" /><node id="579405400" x="144.9589885" y="-37.8206485" /><node id="1132070489" x="144.9437448" y="-37.812462" /><node id="1132070491" x="144.9394338" y="-37.8106443" /><node id="304704442" x="145.0444463" y="-37.8108525" /><node id="92243550" x="144.9314214" y="-37.7945633" /><node id="581305958" x="144.8925283" y="-37.8023647" /><node id="581305960" x="144.8925" y="-37.8024934" /><node id="671319660" x="144.8874904" y="-37.8013041" /><node id="671319664" x="144.8875905" y="-37.801236" /><node id="67700339" x="144.9230672" y="-37.7926411" /><node id="671319670" x="144.8877132" y="-37.8010697" /><node id="671319673" x="144.8877397" y="-37.8009835" /><node id="4957734526" x="144.9454901" y="-37.8084545" /><node id="4957734527" x="144.9453723" y="-37.8084417" /><node id="4957734528" x="144.9453273" y="-37.8084601" /><node id="4957734529" x="144.9455485" y="-37.808534" /><node id="304704449" x="145.0469046" y="-37.8087176" /><node id="608962184" x="145.0094388" y="-37.8028165" /><node id="3855648395" x="144.8721326" y="-37.8097017" /><node id="671319695" x="144.8880301" y="-37.7996159" /><node id="75105959" x="144.8972583" y="-37.7994945" /><node id="650282682" x="144.9772463" y="-37.8153641" /><node id="361268957" x="144.9778822" y="-37.7989968" /><node id="361268958" x="144.9780151" y="-37.7982848" /><node id="643991276" x="144.9886387" y="-37.8244134" /><node id="518293233" x="145.0146499" y="-37.8202199" /><node id="3879092525" x="144.8780087" y="-37.8197938" /><node id="2187986709" x="144.9718688" y="-37.8116391" /><node id="2187986713" x="144.9720366" y="-37.8115654" /><node id="4443178785" x="144.9537937" y="-37.7985928" /><node id="4443178786" x="144.9530412" y="-37.7979905" /><node id="1700628267" x="144.9599142" y="-37.8069234" /><node id="86673207" x="144.9307636" y="-37.7944882" /><node id="1985546057" x="144.9665299" y="-37.8034919" /><node id="1985546061" x="144.9650493" y="-37.8033228" /><node id="3311863656" x="144.9911524" y="-37.809388" /><node id="3311863657" x="144.991071" y="-37.8094549" /><node id="3311863658" x="144.9928316" y="-37.7992917" /><node id="3311863659" x="144.9927465" y="-37.7991745" /><node id="3311863660" x="144.9927579" y="-37.7990823" /><node id="247007089" x="144.967153" y="-37.8097324" /><node id="247007096" x="144.9675642" y="-37.8096131" /><node id="4413196759" x="144.9020356" y="-37.8000376" /><node id="390924167" x="144.9419845" y="-37.7958164" /><node id="224757641" x="144.9931365" y="-37.8072913" /><node id="304711576" x="145.0264889" y="-37.8208612" /><node id="938149791" x="144.9701024" y="-37.8007919" /><node id="4716365728" x="144.8955132" y="-37.8104154" /><node id="4680892742" x="144.8957759" y="-37.8151072" /><node id="4716365735" x="144.8984356" y="-37.8064262" /><node id="4716365736" x="144.8995016" y="-37.8067317" /><node id="4716365737" x="144.9001913" y="-37.8069312" /><node id="462849962" x="145.0618432" y="-37.8104994" /><node id="224757682" x="144.9941797" y="-37.8073834" /><node id="363399099" x="144.9622938" y="-37.7992141" /><node id="304711620" x="145.035486" y="-37.8218914" /><node id="1367607237" x="144.9706506" y="-37.8002952" /><node id="1367607240" x="144.9717499" y="-37.7996936" /><node id="309981391" x="145.0342207" y="-37.8055493" /><node id="702351321" x="144.9366579" y="-37.8051653" /><node id="250480602" x="145.0058842" y="-37.8118559" /><node id="250480609" x="145.0063192" y="-37.8111224" /><node id="67700706" x="144.9251621" y="-37.7914132" /><node id="304711651" x="145.0295023" y="-37.821188" /><node id="304711672" x="145.03242" y="-37.8215402" /><node id="67644415" x="144.9221125" y="-37.7973397" /><node id="250480641" x="145.005486" y="-37.8110388" /><node id="250480649" x="145.0047212" y="-37.8109632" /><node id="54396941" x="144.9487163" y="-37.8000242" /><node id="250480655" x="145.003222" y="-37.8108189" /><node id="3855648786" x="144.871208" y="-37.8101977" /><node id="250480659" x="145.003438" y="-37.8094735" /><node id="250480662" x="145.0008942" y="-37.8092109" /><node id="250480666" x="145.0015254" y="-37.8106542" /><node id="250480669" x="145.0023363" y="-37.8107328" /><node id="250480672" x="145.0025535" y="-37.8093802" /><node id="250480677" x="145.0017436" y="-37.809295" /><node id="4520380455" x="144.961431" y="-37.8212372" /><node id="4520380456" x="144.9613678" y="-37.8212486" /><node id="518293564" x="145.0160733" y="-37.8199255" /><node id="3529934913" x="144.9152586" y="-37.8077572" /><node id="518293570" x="145.0161653" y="-37.8199002" /><node id="4520380488" x="144.9565907" y="-37.8024403" /><node id="3529934921" x="144.9144864" y="-37.8076796" /><node id="363399252" x="144.9625463" y="-37.7992426" /><node id="702351447" x="144.9377278" y="-37.8053775" /><node id="4520380506" x="144.9565014" y="-37.8117157" /><node id="4520380507" x="144.9564892" y="-37.8116892" /><node id="4520380508" x="144.9564074" y="-37.8116682" /><node id="4520380509" x="144.9563728" y="-37.8116782" /><node id="4520380511" x="144.9565163" y="-37.8117481" /><node id="4520380512" x="144.9565361" y="-37.811791" /><node id="2005895266" x="144.9665068" y="-37.8028167" /><node id="4520380515" x="144.9563424" y="-37.8116871" /><node id="168396901" x="144.9613741" y="-37.8114081" /><node id="767661756" x="144.973072" y="-37.8076995" /><node id="702351473" x="144.9379276" y="-37.8054443" /><node id="702351474" x="144.9383219" y="-37.8055895" /><node id="702351475" x="144.9388946" y="-37.8058215" /><node id="3189540981" x="144.8776746" y="-37.8197573" /><node id="702351481" x="144.9408821" y="-37.8056711" /><node id="702351482" x="144.941098" y="-37.8055873" /><node id="702351483" x="144.941322" y="-37.8055005" /><node id="4520380553" x="144.961391" y="-37.8199382" /><node id="4520380554" x="144.9613446" y="-37.8199091" /><node id="767658128" x="144.9733168" y="-37.8067611" /><node id="767658129" x="144.9733777" y="-37.8067667" /><node id="767658130" x="144.9734147" y="-37.8067707" /><node id="3427731616" x="144.8848861" y="-37.8022907" /><node id="390924452" x="144.9499459" y="-37.7975467" /><node id="2358053032" x="144.9885087" y="-37.812075" /><node id="2358053033" x="144.9887064" y="-37.8121817" /><node id="2358053034" x="144.9887053" y="-37.8121449" /><node id="2358053037" x="144.988574" y="-37.8120597" /><node id="2358053038" x="144.9885241" y="-37.812264" /><node id="2358053041" x="144.9884464" y="-37.8121329" /><node id="2358053042" x="144.9884682" y="-37.8121004" /><node id="2358053044" x="144.9886158" y="-37.8122662" /><node id="1728566985" x="144.9610241" y="-37.8200163" /><node id="244222136" x="144.9729845" y="-37.7976886" /><node id="2358053050" x="144.9886198" y="-37.8120662" /><node id="2358053051" x="144.9885697" y="-37.8122715" /><node id="2358053052" x="144.9884399" y="-37.8121693" /><node id="2428766397" x="144.9847769" y="-37.7982665" /><node id="4826317175" x="144.8986434" y="-37.8064845" /><node id="1600686286" x="144.9838358" y="-37.8015086" /><node id="390924495" x="144.9500673" y="-37.7974448" /><node id="906234081" x="145.0079732" y="-37.80211" /><node id="906234082" x="145.0060987" y="-37.801079" /><node id="906234083" x="145.0072282" y="-37.8017719" /><node id="906234084" x="145.0065842" y="-37.8013707" /><node id="906234085" x="145.0056016" y="-37.8008524" /><node id="906234086" x="145.0053962" y="-37.8007886" /><node id="906234087" x="145.003571" y="-37.8007826" /><node id="906234088" x="145.0075727" y="-37.8019309" /><node id="906234089" x="145.0048134" y="-37.8007309" /><node id="356124906" x="144.9810281" y="-37.8185412" /><node id="906234091" x="145.0070009" y="-37.8016431" /><node id="906234092" x="145.0062816" y="-37.8011834" /><node id="906234093" x="145.0067066" y="-37.8014382" /><node id="906234094" x="145.0058592" y="-37.8009496" /><node id="906234095" x="145.0032655" y="-37.8008536" /><node id="906234096" x="145.0067632" y="-37.8014828" /><node id="906234097" x="145.004988" y="-37.8007345" /><node id="906234098" x="145.0093351" y="-37.8026895" /><node id="906234099" x="145.0087633" y="-37.8024551" /><node id="250001984" x="144.8974037" y="-37.8130359" /><node id="128882408" x="145.0019821" y="-37.8015511" /><node id="370477432" x="145.0195781" y="-37.806708" /><node id="767658367" x="144.9732323" y="-37.8073053" /><node id="420022666" x="144.9964897" y="-37.8115122" /><node id="420022667" x="145.0003405" y="-37.8122487" /><node id="420022670" x="144.9975025" y="-37.8111528" /><node id="420022673" x="144.9965497" y="-37.8112139" /><node id="443264069" x="145.0033795" y="-37.821301" /><node id="1833142690" x="144.8847915" y="-37.8026842" /><node id="1833142694" x="144.8816402" y="-37.8026089" /><node id="1833142699" x="144.8830631" y="-37.8037719" /><node id="1833142700" x="144.8814018" y="-37.8021716" /><node id="1833142702" x="144.8838089" y="-37.8032102" /><node id="1833142704" x="144.8832054" y="-37.8035345" /><node id="370477489" x="145.0184623" y="-37.8065809" /><node id="3215106497" x="144.9524056" y="-37.8077142" /><node id="1833142707" x="144.8845643" y="-37.8028087" /><node id="299024279" x="145.0107074" y="-37.8065438" /><node id="370477495" x="145.0170917" y="-37.8061147" /><node id="462850492" x="145.0630462" y="-37.8106435" /><node id="283334391" x="144.9511953" y="-37.8002758" /><node id="370477521" x="145.0185362" y="-37.8062119" /><node id="370477522" x="145.0172902" y="-37.8056929" /><node id="4413196757" x="144.9014334" y="-37.7999698" /><node id="55118295" x="144.9578806" y="-37.7996308" /><node id="1132070449" x="144.9391696" y="-37.8103858" /><node id="580160001" x="144.9368464" y="-37.7994828" /><node id="356125188" x="144.9798435" y="-37.8184073" /><node id="709706157" x="144.9363255" y="-37.8100244" /><node id="306383379" x="144.9417417" y="-37.8053733" /><node id="356092437" x="144.9989177" y="-37.8200099" /><node id="767658527" x="144.9732904" y="-37.8076272" /><node id="2481930672" x="145.0041801" y="-37.8104906" /><node id="2481930673" x="145.0037593" y="-37.8104531" /><node id="244222508" x="144.9679516" y="-37.802875" /><node id="244222509" x="144.9679365" y="-37.8028999" /><node id="4747758133" x="144.8967104" y="-37.814324" /><node id="4747758146" x="144.8972476" y="-37.8139597" /><node id="4747758147" x="144.8969292" y="-37.8143514" /><node id="4747758154" x="144.897205" y="-37.8142265" /><node id="767658571" x="144.9732695" y="-37.8076246" /><node id="2967053356" x="144.9989152" y="-37.807418" /><node id="67701349" x="144.9259069" y="-37.7921958" /><node id="266734205" x="144.9734049" y="-37.8076698" /><node id="3804564094" x="144.9949336" y="-37.8197666" /><node id="3804564096" x="144.9942283" y="-37.8205164" /><node id="1980926605" x="144.8983245" y="-37.8058793" /><node id="3804564110" x="144.9944242" y="-37.8197067" /><node id="3804564111" x="144.9944097" y="-37.8197249" /><node id="1980926608" x="144.8984689" y="-37.8063013" /><node id="3804564113" x="144.9943626" y="-37.8197453" /><node id="4787407507" x="144.9018326" y="-37.8033559" /><node id="2815396505" x="145.0521351" y="-37.8093469" /><node id="385026714" x="144.9950977" y="-37.8017509" /><node id="3804564123" x="144.9940373" y="-37.8219502" /><node id="3804564124" x="144.9939636" y="-37.8220423" /><node id="2815396509" x="145.0521848" y="-37.8091478" /><node id="2815396510" x="145.0530237" y="-37.8092537" /><node id="2815396511" x="145.0530452" y="-37.8092664" /><node id="2815396512" x="145.053064" y="-37.8092939" /><node id="2815396513" x="145.0530343" y="-37.809456" /><node id="518294183" x="145.0167718" y="-37.8200628" /><node id="518294184" x="145.0170079" y="-37.8202196" /><node id="518294185" x="145.017118" y="-37.8202773" /><node id="471341004" x="144.9669931" y="-37.803743" /><node id="777751231" x="144.9561673" y="-37.8059349" /><node id="356092608" x="144.9989599" y="-37.8197652" /><node id="3961293505" x="144.9630814" y="-37.8077694" /><node id="3961293507" x="144.9632852" y="-37.8082401" /><node id="2358053584" x="144.9882223" y="-37.8143235" /><node id="2358053588" x="144.9881782" y="-37.8143215" /><node id="2358053593" x="144.9882986" y="-37.8143653" /><node id="86674156" x="144.9388412" y="-37.7954076" /><node id="86674159" x="144.9366705" y="-37.7951569" /><node id="86674161" x="144.9354249" y="-37.7950203" /><node id="2358053628" x="144.9876932" y=