<edges><edge from="1928298965" id="1928298965_313441110" to="313441110" /><edge from="313441110" id="313441110_313440691" to="313440691" /><edge from="313440691" id="313440691_313441737" to="313441737" /><edge from="313441737" id="313441737_313254240" to="313254240" /><edge from="313254240" id="313254240_313139758" to="313139758" /><edge from="313139758" id="313139758_1928315581" to="1928315581" /><edge from="1928315581" id="1928315581_1928315592" to="1928315592" /><edge from="1928315592" id="1928315592_1928315579" to="1928315579" /><edge from="1928315579" id="1928315579_1928315589" to="1928315589" /><edge from="1928315589" id="1928315589_1928315553" to="1928315553" /><edge from="1928315553" id="1928315553_1928315555" to="1928315555" /><edge from="1928315555" id="1928315555_1928315558" to="1928315558" /><edge from="1928315558" id="1928315558_1928315573" to="1928315573" /><edge from="1928315573" id="1928315573_1928315552" to="1928315552" /><edge from="1928315552" id="1928315552_1928315586" to="1928315586" /><edge from="1928315586" id="1928315586_313139789" to="313139789" /><edge from="313139789" id="313139789_313254109" to="313254109" /><edge from="313254109" id="313254109_313139805" to="313139805" /><edge from="313139805" id="313139805_313254077" to="313254077" /><edge from="313254077" id="313254077_313139816" to="313139816" /><edge from="313139816" id="313139816_313140298" to="313140298" /><edge from="313140298" id="313140298_313139836" to="313139836" /><edge from="313139836" id="313139836_673083815" to="673083815" /><edge from="673083815" id="673083815_313139946" to="313139946" /><edge from="313139946" id="313139946_313140141" to="313140141" /><edge from="313140141" id="313140141_313140107" to="313140107" /><edge from="313140107" id="313140107_313140045" to="313140045" /><edge from="313140045" id="313140045_313248462" to="313248462" /><edge from="313248462" id="313248462_21643809" to="21643809" /><edge from="21643809" id="21643809_313248453" to="313248453" /><edge from="313248453" id="313248453_462859358" to="462859358" /><edge from="462859358" id="462859358_462868395" to="462868395" /><edge from="462868395" id="462868395_311901574" to="311901574" /><edge from="311901574" id="311901574_310001311" to="310001311" /><edge from="310001311" id="310001311_3496672103" to="3496672103" /><edge from="3496672103" id="3496672103_311902363" to="311902363" /><edge from="311902363" id="311902363_310001304" to="310001304" /><edge from="310001304" id="310001304_309977100" to="309977100" /><edge from="309977100" id="309977100_2123710642" to="2123710642" /><edge from="2123710642" id="2123710642_370482122" to="370482122" /><edge from="370482122" id="370482122_2123710629" to="2123710629" /><edge from="2123710629" id="2123710629_370482116" to="370482116" /><edge from="370482116" id="370482116_2123710640" to="2123710640" /><edge from="2123710640" id="2123710640_370482121" to="370482121" /><edge from="370482121" id="370482121_2123710630" to="2123710630" /><edge from="2123710630" id="2123710630_370482117" to="370482117" /><edge from="370482117" id="370482117_309977235" to="309977235" /><edge from="309977235" id="309977235_309977505" to="309977505" /><edge from="309977505" id="309977505_309977300" to="309977300" /><edge from="309977300" id="309977300_309977428" to="309977428" /><edge from="309977428" id="309977428_309977132" to="309977132" /><edge from="309977132" id="309977132_263991606" to="263991606" /><edge from="263991606" id="263991606_309977112" to="309977112" /><edge from="309977112" id="309977112_4679496745" to="4679496745" /><edge from="4679496745" id="4679496745_5300049083" to="5300049083" /><edge from="5300049083" id="5300049083_5300049087" to="5300049087" /><edge from="5300049087" id="5300049087_5300049089" to="5300049089" /><edge from="5300049089" id="5300049089_5300049084" to="5300049084" /><edge from="5300049084" id="5300049084_5300049090" to="5300049090" /><edge from="5300049090" id="5300049090_5300049091" to="5300049091" /><edge from="5300049091" id="5300049091_309971280" to="309971280" /><edge from="309971280" id="309971280_3996716073" to="3996716073" /><edge from="3996716073" id="3996716073_309972963" to="309972963" /><edge from="309972963" id="309972963_309972628" to="309972628" /><edge from="309972628" id="309972628_2938993273" to="2938993273" /><edge from="2938993273" id="2938993273_309972524" to="309972524" /><edge from="309972524" id="309972524_309972464" to="309972464" /><edge from="309972464" id="309972464_309972099" to="309972099" /><edge from="309972099" id="309972099_309971848" to="309971848" /><edge from="309971848" id="309971848_309971064" to="309971064" /><edge from="309971064" id="309971064_1260373746" to="1260373746" /><edge from="1260373746" id="1260373746_309971278" to="309971278" /><edge from="309971278" id="309971278_2247591109" to="2247591109" /><edge from="2247591109" id="2247591109_2247591099" to="2247591099" /><edge from="2247591099" id="2247591099_2247594824" to="2247594824" /><edge from="2247594824" id="2247594824_309971077" to="309971077" /><edge from="309971077" id="309971077_309985025" to="309985025" /><edge from="309985025" id="309985025_309970358" to="309970358" /><edge from="309970358" id="309970358_309970191" to="309970191" /><edge from="309970191" id="309970191_2080740198" to="2080740198" /><edge from="2080740198" id="2080740198_3207124707" to="3207124707" /><edge from="3207124707" id="3207124707_309969854" to="309969854" /><edge from="309969854" id="309969854_4204671723" to="4204671723" /><edge from="4204671723" id="4204671723_2247655069" to="2247655069" /><edge from="2247655069" id="2247655069_4802879114" to="4802879114" /><edge from="4802879114" id="4802879114_2245347126" to="2245347126" /><edge from="2245347126" id="2245347126_304701810" to="304701810" /><edge from="304701810" id="304701810_2245347115" to="2245347115" /><edge from="2245347115" id="2245347115_4288151624" to="4288151624" /><edge from="4288151624" id="4288151624_3071689094" to="3071689094" /><edge from="3071689094" id="3071689094_3071689559" to="3071689559" /><edge from="3071689559" id="3071689559_304700794" to="304700794" /><edge from="304700794" id="304700794_2296771813" to="2296771813" /><edge from="2296771813" id="2296771813_304700760" to="304700760" /><edge from="304700760" id="304700760_3506373724" to="3506373724" /><edge from="3506373724" id="3506373724_304700727" to="304700727" /><edge from="304700727" id="304700727_304701498" to="304701498" /><edge from="304701498" id="304701498_457407495" to="457407495" /><edge from="457407495" id="457407495_4790942983" to="4790942983" /><edge from="4790942983" id="4790942983_4790942984" to="4790942984" /><edge from="4790942984" id="4790942984_1700619562" to="1700619562" /><edge from="1700619562" id="1700619562_210734545" to="210734545" /><edge from="210734545" id="210734545_1522834456" to="1522834456" /><edge from="1522834456" id="1522834456_1522834356" to="1522834356" /><edge from="1522834356" id="1522834356_1522976990" to="1522976990" /><edge from="1522976990" id="1522976990_1522834323" to="1522834323" /><edge from="1522834323" id="1522834323_1522834449" to="1522834449" /><edge from="1522834449" id="1522834449_1522834336" to="1522834336" /><edge from="1522834336" id="1522834336_1522566160" to="1522566160" /><edge from="1522566160" id="1522566160_2347234660" to="2347234660" /><edge from="2347234660" id="2347234660_1522566180" to="1522566180" /><edge from="1522566180" id="1522566180_210772014" to="210772014" /><edge from="210772014" id="210772014_21643829" to="21643829" /><edge from="21643829" id="21643829_304708795" to="304708795" /><edge from="304708795" id="304708795_1522566240" to="1522566240" /><edge from="1522566240" id="1522566240_1522566124" to="1522566124" /><edge from="1522566124" id="1522566124_304709133" to="304709133" /><edge from="304709133" id="304709133_1522566236" to="1522566236" /><edge from="1522566236" id="1522566236_2080740205" to="2080740205" /><edge from="2080740205" id="2080740205_1487227940" to="1487227940" /><edge from="1487227940" id="1487227940_1522566210" to="1522566210" /><edge from="1522566210" id="1522566210_1522566141" to="1522566141" /><edge from="1522566141" id="1522566141_1487228109" to="1487228109" /><edge from="1487228109" id="1487228109_1487227910" to="1487227910" /><edge from="1487227910" id="1487227910_304700558" to="304700558" /><edge from="304700558" id="304700558_304709018" to="304709018" /><edge from="304709018" id="304709018_31477190" to="31477190" /><edge from="31477190" id="31477190_214092456" to="214092456" /><edge from="214092456" id="214092456_304700568" to="304700568" /><edge from="304700568" id="304700568_31477189" to="31477189" /><edge from="31477189" id="31477189_31477188" to="31477188" /><edge from="31477188" id="31477188_31477187" to="31477187" /><edge from="31477187" id="31477187_31477186" to="31477186" /><edge from="31477186" id="31477186_304699987" to="304699987" /><edge from="304699987" id="304699987_214122166" to="214122166" /><edge from="214122166" id="214122166_214122332" to="214122332" /><edge from="214122332" id="214122332_214122309" to="214122309" /><edge from="214122309" id="214122309_214122288" to="214122288" /><edge from="214122288" id="214122288_214122280" to="214122280" /><edge from="214122280" id="214122280_2940388711" to="2940388711" /><edge from="2940388711" id="2940388711_214122268" to="214122268" /><edge from="214122268" id="214122268_2940388712" to="2940388712" /><edge from="2940388712" id="2940388712_214122245" to="214122245" /><edge from="214122245" id="214122245_2940388713" to="2940388713" /><edge from="2940388713" id="2940388713_214122218" to="214122218" /><edge from="214122218" id="214122218_2940388714" to="2940388714" /><edge from="2940388714" id="2940388714_2940388709" to="2940388709" /><edge from="2940388709" id="2940388709_214122197" to="214122197" /><edge from="214122197" id="214122197_214122180" to="214122180" /><edge from="214122180" id="214122180_214092481" to="214092481" /><edge from="214092481" id="214092481_541122878" to="541122878" /><edge from="541122878" id="541122878_541122879" to="541122879" /><edge from="541122879" id="541122879_541122877" to="541122877" /><edge from="541122877" id="541122877_541122876" to="541122876" /><edge from="541122876" id="541122876_541122875" to="541122875" /><edge from="541122875" id="541122875_541122874" to="541122874" /><edge from="541122874" id="541122874_541122873" to="541122873" /><edge from="541122873" id="541122873_541122872" to="541122872" /><edge from="541122872" id="541122872_541122871" to="541122871" /><edge from="541122871" id="541122871_541122899" to="541122899" /><edge from="541122899" id="541122899_541122901" to="541122901" /><edge from="541122901" id="541122901_541122902" to="541122902" /><edge from="541122902" id="541122902_541122903" to="541122903" /><edge from="541122903" id="541122903_541122904" to="541122904" /><edge from="541122904" id="541122904_541122884" to="541122884" /><edge from="541122884" id="541122884_541122885" to="541122885" /><edge from="541122885" id="541122885_541122845" to="541122845" /><edge from="541122845" id="541122845_541122905" to="541122905" /><edge from="541122905" id="541122905_906234098" to="906234098" /><edge from="906234098" id="906234098_906234090" to="906234090" /><edge from="906234090" id="906234090_906234099" to="906234099" /><edge from="906234099" id="906234099_906234081" to="906234081" /><edge from="906234081" id="906234081_906234088" to="906234088" /><edge from="906234088" id="906234088_906234083" to="906234083" /><edge from="906234083" id="906234083_906234091" to="906234091" /><edge from="906234091" id="906234091_906234096" to="906234096" /><edge from="906234096" id="906234096_906234093" to="906234093" /><edge from="906234093" id="906234093_906234084" to="906234084" /><edge from="906234084" id="906234084_906234092" to="906234092" /><edge from="906234092" id="906234092_906234082" to="906234082" /><edge from="906234082" id="906234082_906234094" to="906234094" /><edge from="906234094" id="906234094_906234085" to="906234085" /><edge from="906234085" id="906234085_2384157684" to="2384157684" /><edge from="2384157684" id="2384157684_561538868" to="561538868" /><edge from="561538868" id="561538868_31477175" to="31477175" /><edge from="31477175" id="31477175_305909758" to="305909758" /><edge from="305909758" id="305909758_31477174" to="31477174" /><edge from="31477174" id="31477174_906234095" to="906234095" /><edge from="906234095" id="906234095_3067843936" to="3067843936" /><edge from="3067843936" id="3067843936_827113739" to="827113739" /><edge from="827113739" id="827113739_128874949" to="128874949" /><edge from="128874949" id="128874949_4698523257" to="4698523257" /><edge from="4698523257" id="4698523257_128882462" to="128882462" /><edge from="128882462" id="128882462_128882408" to="128882408" /><edge from="128882408" id="128882408_3065030524" to="3065030524" /><edge from="3065030524" id="3065030524_3065030525" to="3065030525" /><edge from="3065030525" id="3065030525_128882422" to="128882422" /><edge from="128882422" id="128882422_128874960" to="128874960" /><edge from="128874960" id="128874960_305913668" to="305913668" /><edge from="305913668" id="305913668_3065030523" to="3065030523" /><edge from="3065030523" id="3065030523_305913665" to="305913665" /><edge from="305913665" id="305913665_128882436" to="128882436" /><edge from="128882436" id="128882436_305912824" to="305912824" /><edge from="305912824" id="305912824_2176972919" to="2176972919" /><edge from="2176972919" id="2176972919_305912820" to="305912820" /><edge from="305912820" id="305912820_128882501" to="128882501" /><edge from="128882501" id="128882501_129279518" to="129279518" /><edge from="129279518" id="129279518_1033063213" to="1033063213" /><edge from="1033063213" id="1033063213_1521014627" to="1521014627" /><edge from="1521014627" id="1521014627_129279422" to="129279422" /><edge from="129279422" id="129279422_31477171" to="31477171" /><edge from="31477171" id="31477171_38779052" to="38779052" /><edge from="38779052" id="38779052_248969197" to="248969197" /><edge from="248969197" id="248969197_1519470760" to="1519470760" /><edge from="1519470760" id="1519470760_227324606" to="227324606" /><edge from="227324606" id="227324606_356474935" to="356474935" /><edge from="356474935" id="356474935_227324666" to="227324666" /><edge from="227324666" id="227324666_356474868" to="356474868" /><edge from="356474868" id="356474868_30287517" to="30287517" /><edge from="30287517" id="30287517_356474514" to="356474514" /><edge from="356474514" id="356474514_227324563" to="227324563" /><edge from="227324563" id="227324563_356474318" to="356474318" /><edge from="356474318" id="356474318_356474260" to="356474260" /><edge from="356474260" id="356474260_227324467" to="227324467" /><edge from="227324467" id="227324467_356474167" to="356474167" /><edge from="356474167" id="356474167_227324395" to="227324395" /><edge from="227324395" id="227324395_384006483" to="384006483" /><edge from="384006483" id="384006483_1985429676" to="1985429676" /><edge from="1985429676" id="1985429676_2469585431" to="2469585431" /><edge from="2469585431" id="2469585431_1095506178" to="1095506178" /><edge from="1095506178" id="1095506178_227770398" to="227770398" /><edge from="227770398" id="227770398_448078442" to="448078442" /><edge from="448078442" id="448078442_2213981044" to="2213981044" /><edge from="2213981044" id="2213981044_227766956" to="227766956" /><edge from="227766956" id="227766956_31477169" to="31477169" /><edge from="31477169" id="31477169_2213981047" to="2213981047" /><edge from="2213981047" id="2213981047_4297530170" to="4297530170" /><edge from="4297530170" id="4297530170_385176510" to="385176510" /><edge from="385176510" id="385176510_385176258" to="385176258" /><edge from="385176258" id="385176258_385176790" to="385176790" /><edge from="385176790" id="385176790_233270786" to="233270786" /><edge from="233270786" id="233270786_2457712013" to="2457712013" /><edge from="2457712013" id="2457712013_233270800" to="233270800" /><edge from="233270800" id="233270800_233255206" to="233255206" /><edge from="233255206" id="233255206_248969231" to="248969231" /><edge from="248969231" id="248969231_412650031" to="412650031" /><edge from="412650031" id="412650031_302567006" to="302567006" /><edge from="302567006" id="302567006_412650030" to="412650030" /><edge from="412650030" id="412650030_298100832" to="298100832" /><edge from="298100832" id="298100832_233315265" to="233315265" /><edge from="233315265" id="233315265_384005174" to="384005174" /><edge from="384005174" id="384005174_2204643284" to="2204643284" /><edge from="2204643284" id="2204643284_233274958" to="233274958" /><edge from="233274958" id="233274958_2204643308" to="2204643308" /><edge from="2204643308" id="2204643308_361268957" to="361268957" /><edge from="361268957" id="361268957_540050221" to="540050221" /><edge from="540050221" id="540050221_540050220" to="540050220" /><edge from="540050220" id="540050220_540050219" to="540050219" /><edge from="540050219" id="540050219_389150540" to="389150540" /><edge from="389150540" id="389150540_389150537" to="389150537" /><edge from="389150537" id="389150537_388569480" to="388569480" /><edge from="388569480" id="388569480_4000075632" to="4000075632" /><edge from="4000075632" id="4000075632_2199393936" to="2199393936" /><edge from="2199393936" id="2199393936_4294474597" to="4294474597" /><edge from="4294474597" id="4294474597_4294474596" to="4294474596" /><edge from="4294474596" id="4294474596_2199393955" to="2199393955" /><edge from="2199393955" id="2199393955_4000075630" to="4000075630" /><edge from="4000075630" id="4000075630_4000075629" to="4000075629" /><edge from="4000075629" id="4000075629_4294470722" to="4294470722" /><edge from="4294470722" id="4294470722_244222136" to="244222136" /><edge from="244222136" id="244222136_230778341" to="230778341" /><edge from="230778341" id="230778341_305538882" to="305538882" /><edge from="305538882" id="305538882_2325395482" to="2325395482" /><edge from="2325395482" id="2325395482_33318861" to="33318861" /><edge from="33318861" id="33318861_34160626" to="34160626" /><edge from="34160626" id="34160626_305540213" to="305540213" /><edge from="305540213" id="305540213_31402957" to="31402957" /><edge from="31402957" id="31402957_31402956" to="31402956" /><edge from="31402956" id="31402956_1287222135" to="1287222135" /><edge from="1287222135" id="1287222135_1287222119" to="1287222119" /><edge from="1287222119" id="1287222119_3961293504" to="3961293504" /><edge from="3961293504" id="3961293504_1287222232" to="1287222232" /><edge from="1287222232" id="1287222232_1287222165" to="1287222165" /><edge from="1287222165" id="1287222165_1287222159" to="1287222159" /><edge from="1287222159" id="1287222159_1287222198" to="1287222198" /><edge from="1287222198" id="1287222198_1287222143" to="1287222143" /><edge from="1287222143" id="1287222143_1287222186" to="1287222186" /><edge from="1287222186" id="1287222186_1287222163" to="1287222163" /><edge from="1287222163" id="1287222163_1287222258" to="1287222258" /><edge from="1287222258" id="1287222258_1287222218" to="1287222218" /><edge from="1287222218" id="1287222218_1287239201" to="1287239201" /><edge from="1287239201" id="1287239201_1287339272" to="1287339272" /><edge from="1287339272" id="1287339272_1287239271" to="1287239271" /><edge from="1287239271" id="1287239271_1287239240" to="1287239240" /><edge from="1287239240" id="1287239240_1287339281" to="1287339281" /><edge from="1287339281" id="1287339281_1287239206" to="1287239206" /><edge from="1287239206" id="1287239206_1985549819" to="1985549819" /><edge from="1985549819" id="1985549819_1985549818" to="1985549818" /><edge from="1985549818" id="1985549818_1985549817" to="1985549817" /><edge from="1985549817" id="1985549817_472236189" to="472236189" /><edge from="472236189" id="472236189_472236187" to="472236187" /><edge from="472236187" id="472236187_366082618" to="366082618" /><edge from="366082618" id="366082618_1725216373" to="1725216373" /><edge from="1725216373" id="1725216373_137181126" to="137181126" /><edge from="137181126" id="137181126_677245571" to="677245571" /><edge from="677245571" id="677245571_367849048" to="367849048" /><edge from="367849048" id="367849048_367849053" to="367849053" /><edge from="367849053" id="367849053_4419701257" to="4419701257" /><edge from="4419701257" id="4419701257_1492410146" to="1492410146" /><edge from="1492410146" id="1492410146_1492410212" to="1492410212" /><edge from="1492410212" id="1492410212_1492169325" to="1492169325" /><edge from="1492169325" id="1492169325_1492169330" to="1492169330" /><edge from="1492169330" id="1492169330_2992062893" to="2992062893" /><edge from="2992062893" id="2992062893_1492169253" to="1492169253" /><edge from="1492169253" id="1492169253_1492169261" to="1492169261" /><edge from="1492169261" id="1492169261_1492169336" to="1492169336" /><edge from="1492169336" id="1492169336_1492169348" to="1492169348" /><edge from="1492169348" id="1492169348_1492169335" to="1492169335" /><edge from="1492169335" id="1492169335_1879269418" to="1879269418" /><edge from="1879269418" id="1879269418_1996608006" to="1996608006" /><edge from="1996608006" id="1996608006_257506658" to="257506658" /><edge from="257506658" id="257506658_2185303481" to="2185303481" /><edge from="2185303481" id="2185303481_1881118510" to="1881118510" /><edge from="1881118510" id="1881118510_33238480" to="33238480" /><edge from="33238480" id="33238480_1888086803" to="1888086803" /><edge from="1888086803" id="1888086803_312719435" to="312719435" /><edge from="312719435" id="312719435_312719437" to="312719437" /><edge from="312719437" id="312719437_5427944926" to="5427944926" /><edge from="5427944926" id="5427944926_52600109" to="52600109" /><edge from="52600109" id="52600109_5427967046" to="5427967046" /><edge from="5427967046" id="5427967046_4069715678" to="4069715678" /><edge from="4069715678" id="4069715678_52600101" to="52600101" /><edge from="52600101" id="52600101_1877472370" to="1877472370" /><edge from="1877472370" id="1877472370_5427967042" to="5427967042" /><edge from="5427967042" id="5427967042_55118295" to="55118295" /><edge from="55118295" id="55118295_778812532" to="778812532" /><edge from="778812532" id="778812532_778809794" to="778809794" /><edge from="778809794" id="778809794_2209383495" to="2209383495" /><edge from="2209383495" id="2209383495_4326586167" to="4326586167" /><edge from="4326586167" id="4326586167_4326586166" to="4326586166" /><edge from="4326586166" id="4326586166_2209383610" to="2209383610" /><edge from="2209383610" id="2209383610_778809792" to="778809792" /><edge from="778809792" id="778809792_778809779" to="778809779" /><edge from="778809779" id="778809779_778802605" to="778802605" /><edge from="778802605" id="778802605_778802602" to="778802602" /><edge from="778802602" id="778802602_778804848" to="778804848" /><edge from="778804848" id="778804848_778802599" to="778802599" /><edge from="778802599" id="778802599_778802597" to="778802597" /><edge from="778802597" id="778802597_1492416115" to="1492416115" /><edge from="1492416115" id="1492416115_778802594" to="778802594" /><edge from="778802594" id="778802594_778802587" to="778802587" /><edge from="778802587" id="778802587_778802582" to="778802582" /><edge from="778802582" id="778802582_30240831" to="30240831" /><edge from="30240831" id="30240831_30993509" to="30993509" /><edge from="30993509" id="30993509_777905274" to="777905274" /><edge from="777905274" id="777905274_777905273" to="777905273" /><edge from="777905273" id="777905273_777912975" to="777912975" /><edge from="777912975" id="777912975_777912972" to="777912972" /><edge from="777912972" id="777912972_777912969" to="777912969" /><edge from="777912969" id="777912969_777912966" to="777912966" /><edge from="777912966" id="777912966_777912959" to="777912959" /><edge from="777912959" id="777912959_777915035" to="777915035" /><edge from="777915035" id="777915035_777915033" to="777915033" /><edge from="777915033" id="777915033_777915031" to="777915031" /><edge from="777915031" id="777915031_1283628999" to="1283628999" /><edge from="1283628999" id="1283628999_1833120502" to="1833120502" /><edge from="1833120502" id="1833120502_210397146" to="210397146" /><edge from="210397146" id="210397146_1281079287" to="1281079287" /><edge from="1281079287" id="1281079287_4460254039" to="4460254039" /><edge from="4460254039" id="4460254039_1833120526" to="1833120526" /><edge from="1833120526" id="1833120526_35523917" to="35523917" /><edge from="35523917" id="35523917_1283618030" to="1283618030" /><edge from="1283618030" id="1283618030_2096325818" to="2096325818" /><edge from="2096325818" id="2096325818_2096325834" to="2096325834" /><edge from="2096325834" id="2096325834_2096325820" to="2096325820" /><edge from="2096325820" id="2096325820_2096325801" to="2096325801" /><edge from="2096325801" id="2096325801_2096325822" to="2096325822" /><edge from="2096325822" id="2096325822_2096325832" to="2096325832" /><edge from="2096325832" id="2096325832_2096325821" to="2096325821" /><edge from="2096325821" id="2096325821_1686718973" to="1686718973" /><edge from="1686718973" id="1686718973_475511486" to="475511486" /><edge from="475511486" id="475511486_54401918" to="54401918" /><edge from="54401918" id="54401918_283334322" to="283334322" /><edge from="283334322" id="283334322_1994687844" to="1994687844" /><edge from="1994687844" id="1994687844_128684578" to="128684578" /><edge from="128684578" id="128684578_35524093" to="35524093" /><edge from="35524093" id="35524093_53132201" to="53132201" /><edge from="53132201" id="53132201_1994687836" to="1994687836" /><edge from="1994687836" id="1994687836_3211864064" to="3211864064" /><edge from="3211864064" id="3211864064_3211864063" to="3211864063" /><edge from="3211864063" id="3211864063_54405148" to="54405148" /><edge from="54405148" id="54405148_283334391" to="283334391" /><edge from="283334391" id="283334391_283334330" to="283334330" /><edge from="283334330" id="283334330_2371476475" to="2371476475" /><edge from="2371476475" id="2371476475_387153063" to="387153063" /><edge from="387153063" id="387153063_2371476474" to="2371476474" /><edge from="2371476474" id="2371476474_2371476472" to="2371476472" /><edge from="2371476472" id="2371476472_2371476473" to="2371476473" /><edge from="2371476473" id="2371476473_54396946" to="54396946" /><edge from="54396946" id="54396946_283334331" to="283334331" /><edge from="283334331" id="283334331_54404478" to="54404478" /><edge from="54404478" id="54404478_283334500" to="283334500" /><edge from="283334500" id="283334500_54396941" to="54396941" /><edge from="54396941" id="54396941_3094966835" to="3094966835" /><edge from="3094966835" id="3094966835_3094966834" to="3094966834" /><edge from="3094966834" id="3094966834_387153040" to="387153040" /><edge from="387153040" id="387153040_362879936" to="362879936" /><edge from="362879936" id="362879936_362878340" to="362878340" /><edge from="362878340" id="362878340_2207661123" to="2207661123" /><edge from="2207661123" id="2207661123_2207661118" to="2207661118" /><edge from="2207661118" id="2207661118_2207661051" to="2207661051" /><edge from="2207661051" id="2207661051_2207663837" to="2207663837" /><edge from="2207663837" id="2207663837_2207663825" to="2207663825" /><edge from="2207663825" id="2207663825_2207663839" to="2207663839" /><edge from="2207663839" id="2207663839_1982492360" to="1982492360" /><edge from="1982492360" id="1982492360_1982492359" to="1982492359" /><edge from="1982492359" id="1982492359_137154094" to="137154094" /><edge from="137154094" id="137154094_137154123" to="137154123" /><edge from="137154123" id="137154123_3222703081" to="3222703081" /><edge from="3222703081" id="3222703081_3222703080" to="3222703080" /><edge from="3222703080" id="3222703080_1686695072" to="1686695072" /><edge from="1686695072" id="1686695072_1686695067" to="1686695067" /><edge from="1686695067" id="1686695067_1686695063" to="1686695063" /><edge from="1686695063" id="1686695063_580026120" to="580026120" /><edge from="580026120" id="580026120_127588852" to="127588852" /><edge from="127588852" id="127588852_781145741" to="781145741" /><edge from="781145741" id="781145741_2206276200" to="2206276200" /><edge from="2206276200" id="2206276200_125386156" to="125386156" /><edge from="125386156" id="125386156_137148242" to="137148242" /><edge from="137148242" id="137148242_95554473" to="95554473" /><edge from="95554473" id="95554473_3907441680" to="3907441680" /><edge from="3907441680" id="3907441680_251083833" to="251083833" /><edge from="251083833" id="251083833_580160001" to="580160001" /><edge from="580160001" id="580160001_3260985583" to="3260985583" /><edge from="3260985583" id="3260985583_3907441681" to="3907441681" /><edge from="3907441681" id="3907441681_3094967060" to="3094967060" /><edge from="3094967060" id="3094967060_2142179147" to="2142179147" /><edge from="2142179147" id="2142179147_95554476" to="95554476" /><edge from="95554476" id="95554476_3907441682" to="3907441682" /><edge from="3907441682" id="3907441682_95559042" to="95559042" /><edge from="95559042" id="95559042_95554477" to="95554477" /><edge from="95554477" id="95554477_95554478" to="95554478" /><edge from="95554478" id="95554478_95554479" to="95554479" /><edge from="95554479" id="95554479_3211892694" to="3211892694" /><edge from="3211892694" id="3211892694_95558204" to="95558204" /><edge from="95558204" id="95558204_4804868833" to="4804868833" /><edge from="4804868833" id="4804868833_202464190" to="202464190" /><edge from="202464190" id="202464190_1201417377" to="1201417377" /><edge from="1201417377" id="1201417377_4804868831" to="4804868831" /><edge from="4804868831" id="4804868831_4804868832" to="4804868832" /><edge from="4804868832" id="4804868832_123330902" to="123330902" /><edge from="123330902" id="123330902_123348703" to="123348703" /