<nodes><node id="5546311686" x="145.013087" y="-37.8043532" /><node id="4000710669" x="145.038027" y="-37.807692" /><node id="227770398" x="144.9849079" y="-37.7999137" /><node id="52600109" x="144.9610721" y="-37.8001034" /><node id="850722885" x="145.0379324" y="-37.8076811" /><node id="1257406536" x="144.9939962" y="-37.8016402" /><node id="1257406547" x="144.9939704" y="-37.8019718" /><node id="4288151637" x="145.0300905" y="-37.8070383" /><node id="4288151642" x="145.0437864" y="-37.8083295" /><node id="4288151643" x="145.043796" y="-37.8083632" /><node id="4288151644" x="145.044334" y="-37.8083948" /><node id="571730618" x="144.9567625" y="-37.8188302" /><node id="60653699" x="144.9438917" y="-37.813149" /><node id="60653700" x="144.9442898" y="-37.8135071" /><node id="60653701" x="144.9445173" y="-37.8138029" /><node id="60653707" x="144.9505059" y="-37.8178344" /><node id="60653712" x="144.9505662" y="-37.8179149" /><node id="60653717" x="144.9444699" y="-37.8140957" /><node id="3306881184" x="144.9558159" y="-37.8118399" /><node id="60653735" x="144.9432693" y="-37.812786" /><node id="2214002870" x="144.9847751" y="-37.7959515" /><node id="2214002872" x="144.984773" y="-37.7961787" /><node id="650285160" x="144.9749776" y="-37.8136323" /><node id="2214002875" x="144.9845347" y="-37.7975621" /><node id="3783327950" x="144.8910025" y="-37.8052755" /><node id="3783327955" x="144.8916066" y="-37.8056284" /><node id="2774434013" x="145.0074344" y="-37.801955" /><node id="306905310" x="144.938994" y="-37.810713" /><node id="367132897" x="144.9738332" y="-37.8092779" /><node id="268533989" x="144.9751816" y="-37.8118185" /><node id="268533990" x="144.97473" y="-37.8117705" /><node id="268533991" x="144.9753622" y="-37.8118383" /><node id="268533992" x="144.975521" y="-37.8107927" /><node id="268533993" x="144.9753482" y="-37.8107359" /><node id="268533994" x="144.9780313" y="-37.8110812" /><node id="579371252" x="144.998225" y="-37.7822974" /><node id="373653750" x="144.916164" y="-37.807793" /><node id="202473722" x="144.9336703" y="-37.8035422" /><node id="202473724" x="144.9335502" y="-37.8038135" /><node id="202473725" x="144.9334558" y="-37.8040237" /><node id="371949823" x="144.9692898" y="-37.8049166" /><node id="373653770" x="144.9158538" y="-37.8077456" /><node id="4717969677" x="144.9002959" y="-37.8118549" /><node id="227508496" x="144.9593225" y="-37.8096849" /><node id="2383211224" x="144.9656373" y="-37.813514" /><node id="368378193" x="144.9853384" y="-37.7798544" /><node id="128876884" x="144.9949952" y="-37.8027541" /><node id="372998488" x="144.986353" y="-37.8090958" /><node id="128876893" x="144.9956864" y="-37.8028201" /><node id="4815356254" x="144.9672376" y="-37.807375" /><node id="4283908155" x="144.9960059" y="-37.8100923" /><node id="547586405" x="144.9855861" y="-37.8135169" /><node id="566444092" x="144.9374063" y="-37.7952375" /><node id="547586411" x="144.9856281" y="-37.8132546" /><node id="128876909" x="144.9971376" y="-37.8029669" /><node id="547586423" x="144.9858493" y="-37.8122155" /><node id="547586424" x="144.9853106" y="-37.8121645" /><node id="4283908159" x="144.9755071" y="-37.8104784" /><node id="547586431" x="144.9853537" y="-37.8118849" /><node id="5484183939" x="144.8823392" y="-37.8188401" /><node id="547586436" x="144.9844808" y="-37.813942" /><node id="547586437" x="144.9847561" y="-37.8139718" /><node id="222975383" x="144.9851467" y="-37.8070069" /><node id="1279000973" x="144.8968029" y="-37.7993592" /><node id="547586458" x="144.9855459" y="-37.8137679" /><node id="2696446375" x="144.985371" y="-37.8117628" /><node id="243794355" x="144.9601342" y="-37.7847757" /><node id="1279001026" x="144.8981198" y="-37.7978731" /><node id="1279001028" x="144.8958036" y="-37.7993199" /><node id="1928298965" x="145.0742633" y="-37.8066668" /><node id="1279001049" x="144.8958186" y="-37.7992463" /><node id="1279001051" x="144.8969262" y="-37.7984978" /><node id="2117326245" x="144.9335048" y="-37.7865228" /><node id="320853417" x="144.8710352" y="-37.8040158" /><node id="320853418" x="144.868832" y="-37.8037733" /><node id="2400289298" x="144.9839454" y="-37.8056014" /><node id="571834904" x="144.8773489" y="-37.822394" /><node id="1279001114" x="144.8960428" y="-37.7968841" /><node id="571834908" x="144.8768984" y="-37.8216139" /><node id="571834909" x="144.8767133" y="-37.821563" /><node id="571834910" x="144.8766717" y="-37.8214931" /><node id="2005992020" x="144.9950094" y="-37.8024037" /><node id="5246511886" x="144.9981843" y="-37.7822924" /><node id="2692573971" x="144.9091382" y="-37.8011571" /><node id="4428399220" x="144.8795558" y="-37.8199646" /><node id="2161640065" x="144.9384904" y="-37.7851163" /><node id="781091464" x="145.0131617" y="-37.8121831" /><node id="2161640075" x="144.9383274" y="-37.7852081" /><node id="3440804513" x="145.053543" y="-37.8132573" /><node id="775946936" x="144.958323" y="-37.8041525" /><node id="67797693" x="144.9155762" y="-37.793798" /><node id="372998848" x="144.9876645" y="-37.8092246" /><node id="409550969" x="144.9976505" y="-37.7974467" /><node id="409550970" x="144.9998033" y="-37.7995556" /><node id="1132069603" x="144.9445116" y="-37.8140839" /><node id="4544561900" x="144.9729904" y="-37.8112936" /><node id="4544561901" x="144.9729459" y="-37.8113061" /><node id="4544561902" x="144.9730165" y="-37.8112864" /><node id="4544561903" x="144.9730519" y="-37.8112768" /><node id="5406950130" x="145.0533362" y="-37.7985218" /><node id="723976949" x="145.0088923" y="-37.8113217" /><node id="1132069623" x="144.9444126" y="-37.8141226" /><node id="103121662" x="144.9553881" y="-37.8131438" /><node id="409550976" x="144.9976019" y="-37.7972968" /><node id="5406950151" x="145.0534689" y="-37.7987165" /><node id="1132069641" x="144.9446245" y="-37.8140776" /><node id="233243402" x="144.9847533" y="-37.7961766" /><node id="5406950155" x="145.0526375" y="-37.7984448" /><node id="52593421" x="144.9493511" y="-37.8042068" /><node id="1132069648" x="144.9445408" y="-37.8140807" /><node id="373653635" x="144.9162572" y="-37.8076845" /><node id="122727214" x="144.8997794" y="-37.8145281" /><node id="103121688" x="144.9549523" y="-37.8132701" /><node id="1132069658" x="144.9445885" y="-37.8140786" /><node id="650275631" x="144.9806089" y="-37.8135539" /><node id="224750388" x="144.980231" y="-37.8084683" /><node id="2700837698" x="144.9088995" y="-37.8015979" /><node id="528515915" x="144.9976356" y="-37.7972923" /><node id="528515916" x="144.9976944" y="-37.7973083" /><node id="528515917" x="144.9977286" y="-37.7973469" /><node id="528515918" x="144.9977329" y="-37.7973737" /><node id="528515919" x="144.9977055" y="-37.797424" /><node id="528515920" x="144.9976779" y="-37.7974398" /><node id="528515921" x="144.9998273" y="-37.7995527" /><node id="528515922" x="144.9997669" y="-37.7995517" /><node id="528515923" x="144.9997344" y="-37.7995381" /><node id="528515924" x="144.9997008" y="-37.7995027" /><node id="528515925" x="144.9997046" y="-37.7994345" /><node id="1426680635" x="145.0195339" y="-37.8092832" /><node id="547586920" x="144.9875666" y="-37.8132017" /><node id="2631959402" x="144.9064092" y="-37.7950267" /><node id="777716590" x="144.9555785" y="-37.8055238" /><node id="2664366964" x="144.9578665" y="-37.7976743" /><node id="2664366971" x="144.9578152" y="-37.798093" /><node id="2664366972" x="144.9578711" y="-37.7981122" /><node id="2664366973" x="144.9579338" y="-37.7981212" /><node id="2664366974" x="144.958046" y="-37.79813" /><node id="571835277" x="144.877302" y="-37.8183393" /><node id="571835278" x="144.8772269" y="-37.8180246" /><node id="571835279" x="144.8771813" y="-37.8178424" /><node id="571835280" x="144.8771049" y="-37.8175521" /><node id="571835281" x="144.876999" y="-37.8173932" /><node id="571835282" x="144.8769037" y="-37.8170945" /><node id="571835283" x="144.8768233" y="-37.8169324" /><node id="571835284" x="144.8767294" y="-37.8168508" /><node id="571835285" x="144.8766409" y="-37.8165944" /><node id="571835286" x="144.8765483" y="-37.8164524" /><node id="472236187" x="144.9661252" y="-37.8019766" /><node id="2291073957" x="144.9688582" y="-37.8081719" /><node id="2291073959" x="144.9677713" y="-37.8083515" /><node id="250774441" x="145.0092157" y="-37.8144842" /><node id="2291073964" x="144.9664005" y="-37.8088973" /><node id="2291073966" x="144.9648278" y="-37.8092139" /><node id="2291073968" x="144.9643544" y="-37.8093537" /><node id="2291073971" x="144.9639129" y="-37.8096231" /><node id="2291073974" x="144.9627945" y="-37.8098005" /><node id="2291073975" x="144.9622759" y="-37.8099505" /><node id="2291073976" x="144.961391" y="-37.8102099" /><node id="2291073977" x="144.9612489" y="-37.8102507" /><node id="250774458" x="145.0130674" y="-37.8183864" /><node id="2291073980" x="144.9607978" y="-37.81038" /><node id="2291073983" x="144.959837" y="-37.8106585" /><node id="2291073984" x="144.9589795" y="-37.8109096" /><node id="571835329" x="144.8725314" y="-37.813763" /><node id="571835330" x="144.8729942" y="-37.8137549" /><node id="2291073987" x="144.9590364" y="-37.8110331" /><node id="400753604" x="144.9369713" y="-37.8094146" /><node id="2291073989" x="144.9575123" y="-37.811333" /><node id="2291073990" x="144.9569647" y="-37.8114948" /><node id="2291073991" x="144.9564689" y="-37.8116451" /><node id="2291073992" x="144.9563065" y="-37.8116918" /><node id="2209383369" x="144.9579318" y="-37.7971419" /><node id="400753610" x="144.9369169" y="-37.8095207" /><node id="400753614" x="144.93699" y="-37.8097758" /><node id="2291073999" x="144.9539446" y="-37.812372" /><node id="2291074002" x="144.9540156" y="-37.8124949" /><node id="571835347" x="144.8770032" y="-37.816207" /><node id="2291074006" x="144.9514986" y="-37.813093" /><node id="571835351" x="144.8730937" y="-37.8137942" /><node id="571835352" x="144.8734571" y="-37.8138621" /><node id="571835353" x="144.8736583" y="-37.8139076" /><node id="571835354" x="144.8737749" y="-37.8139648" /><node id="571835355" x="144.874137" y="-37.8142625" /><node id="571835356" x="144.8743731" y="-37.8143992" /><node id="571835357" x="144.8746748" y="-37.8145507" /><node id="571835358" x="144.8752046" y="-37.8147213" /><node id="571835359" x="144.8756511" y="-37.8148516" /><node id="571835360" x="144.8763753" y="-37.815002" /><node id="571835362" x="144.8765135" y="-37.815037" /><node id="3216954875" x="144.9862065" y="-37.8059231" /><node id="571835364" x="144.8768555" y="-37.8152542" /><node id="571835365" x="144.8771143" y="-37.8154619" /><node id="571835367" x="144.8773315" y="-37.815838" /><node id="571835368" x="144.8772631" y="-37.8160477" /><node id="571835369" x="144.8770875" y="-37.8161643" /><node id="2209383402" x="144.9578254" y="-37.7970321" /><node id="123339761" x="144.9261142" y="-37.7992292" /><node id="273115987" x="144.8909401" y="-37.804031" /><node id="1522566134" x="145.0293568" y="-37.80685" /><node id="662159529" x="145.0256347" y="-37.7883081" /><node id="2123710634" x="145.0545571" y="-37.8037607" /><node id="571835393" x="144.8771297" y="-37.8161363" /><node id="2207974407" x="144.9480984" y="-37.8028643" /><node id="1522566154" x="145.0295471" y="-37.8065726" /><node id="3676171099" x="145.0160282" y="-37.8197766" /><node id="1522566181" x="145.0286527" y="-37.8076585" /><node id="2340127788" x="144.9502532" y="-37.7991098" /><node id="1522566189" x="145.030128" y="-37.8064868" /><node id="332546227" x="144.94895" y="-37.8088897" /><node id="2266563639" x="144.9536876" y="-37.8088633" /><node id="2266563642" x="144.954089" y="-37.8087118" /><node id="2266563643" x="144.9554765" y="-37.8081826" /><node id="2266563649" x="144.9554533" y="-37.8082646" /><node id="2266563651" x="144.9539995" y="-37.8087371" /><node id="2209383495" x="144.9576193" y="-37.7996903" /><node id="2266563661" x="144.9550389" y="-37.808443" /><node id="2266563662" x="144.954759" y="-37.808604" /><node id="2266563663" x="144.9548196" y="-37.8085051" /><node id="1522566225" x="145.0301583" y="-37.8063455" /><node id="377947223" x="144.8774272" y="-37.818648" /><node id="1522566232" x="145.0294567" y="-37.8068453" /><node id="41675620" x="144.9437405" y="-37.8134359" /><node id="3506373724" x="145.0334112" y="-37.8094378" /><node id="1409483875" x="144.8745738" y="-37.8143133" /><node id="1522566245" x="145.0290095" y="-37.8068257" /><node id="1409483878" x="144.8764456" y="-37.8164263" /><node id="222987367" x="144.9880745" y="-37.8067851" /><node id="1522566259" x="145.0292542" y="-37.8068458" /><node id="1522566266" x="145.0295792" y="-37.8064169" /><node id="2209383547" x="144.9579437" y="-37.7970446" /><node id="1522566268" x="145.0293823" y="-37.8072739" /><node id="1522566282" x="145.0290926" y="-37.8065279" /><node id="2209383568" x="144.9579201" y="-37.7972376" /><node id="376145063" x="144.976665" y="-37.8090663" /><node id="1522566321" x="145.0290671" y="-37.8068294" /><node id="1522566325" x="145.0294963" y="-37.8068331" /><node id="2247591096" x="145.0467282" y="-37.8010258" /><node id="2209383610" x="144.9575006" y="-37.7996797" /><node id="2247591101" x="145.0461477" y="-37.8012578" /><node id="2247591102" x="145.0449066" y="-37.8015671" /><node id="2247591108" x="145.0449145" y="-37.8015101" /><node id="2247591111" x="145.0449219" y="-37.8016208" /><node id="2247591117" x="145.0459901" y="-37.8013141" /><node id="1522566353" x="145.0294178" y="-37.8068521" /><node id="304710870" x="144.9347841" y="-37.8094097" /><node id="1522566359" x="145.030038" y="-37.8069534" /><node id="1522566362" x="145.0300527" y="-37.8069793" /><node id="250479836" x="145.0064662" y="-37.8111341" /><node id="2245788895" x="145.0573813" y="-37.8099937" /><node id="1522566380" x="145.0300965" y="-37.8066332" /><node id="1522566381" x="145.028931" y="-37.8076495" /><node id="1522566382" x="145.0300353" y="-37.8069183" /><node id="1277946749" x="144.8920888" y="-37.7988233" /><node id="2245788915" x="145.0469016" y="-37.8087332" /><node id="1522566389" x="145.0300326" y="-37.806936" /><node id="2245788919" x="145.0489378" y="-37.8089431" /><node id="376145144" x="144.9783574" y="-37.8092433" /><node id="2245788924" x="145.0449397" y="-37.8084995" /><node id="2245788925" x="145.0560272" y="-37.8098308" /><node id="571835647" x="144.877003" y="-37.8159259" /><node id="571835648" x="144.876897" y="-37.8157966" /><node id="571835649" x="144.8766275" y="-37.8155508" /><node id="2245788930" x="145.057388" y="-37.8099602" /><node id="571835651" x="144.8761299" y="-37.8153135" /><node id="571835652" x="144.8759958" y="-37.8152139" /><node id="2245788933" x="145.0495395" y="-37.8090479" /><node id="571835654" x="144.8757611" y="-37.8149819" /><node id="777782548" x="144.9539442" y="-37.8035955" /><node id="777717014" x="144.9559188" y="-37.805561" /><node id="571835672" x="144.8746306" y="-37.8144924" /><node id="571835673" x="144.8747152" y="-37.8145637" /><node id="571835675" x="144.8744779" y="-37.8144519" /><node id="250774468" x="145.0128547" y="-37.8194355" /><node id="571835677" x="144.8756185" y="-37.8148421" /><node id="2841675044" x="144.9681941" y="-37.8082466" /><node id="2841675047" x="144.9664548" y="-37.8087515" /><node id="2841675048" x="144.9664493" y="-37.8087398" /><node id="2841675051" x="144.9658126" y="-37.8089248" /><node id="2841675052" x="144.9658354" y="-37.8089313" /><node id="3359255432" x="144.8841964" y="-37.8045775" /><node id="1280017714" x="144.9497246" y="-37.7882652" /><node id="2841675059" x="144.9639591" y="-37.809476" /><node id="2841675060" x="144.9632669" y="-37.8096656" /><node id="2841675061" x="144.9632948" y="-37.8096688" /><node id="30944137" x="144.9782577" y="-37.8097648" /><node id="1725203768" x="144.995205" y="-37.7984701" /><node id="571835711" x="144.8756125" y="-37.8149298" /><node id="571835717" x="144.8764719" y="-37.8150265" /><node id="571835720" x="144.8765671" y="-37.8148135" /><node id="571835721" x="144.8766888" y="-37.814814" /><node id="2181268810" x="144.9590339" y="-37.8110279" /><node id="571835726" x="144.877282" y="-37.8157122" /><node id="244548946" x="144.9776693" y="-37.7966214" /><node id="571835731" x="144.8770452" y="-37.8161857" /><node id="571835735" x="144.8771277" y="-37.8163253" /><node id="1994687832" x="144.9508937" y="-37.7994297" /><node id="571835737" x="144.8773463" y="-37.8169398" /><node id="571835738" x="144.8774174" y="-37.8171496" /><node id="2181268830" x="144.9663962" y="-37.808888" /><node id="2181268832" x="144.9638876" y="-37.8096177" /><node id="1280017765" x="144.9496876" y="-37.7882843" /><node id="571835757" x="144.8774692" y="-37.8173149" /><node id="3947038080" x="144.9589931" y="-37.8019162" /><node id="4695098776" x="145.024164" y="-37.7819777" /><node id="1449297305" x="144.9774634" y="-37.8153946" /><node id="1895925154" x="144.9596346" y="-37.8063476" /><node id="1895925155" x="144.9592654" y="-37.8061852" /><node id="4695098788" x="145.0241937" y="-37.7819757" /><node id="4695098791" x="145.0254324" y="-37.7828177" /><node id="1240466868" x="144.9414035" y="-37.7886485" /><node id="4695098807" x="145.0254689" y="-37.7832427" /><node id="4695098809" x="145.0250859" y="-37.7818844" /><node id="4695098818" x="145.0226299" y="-37.7823727" /><node id="4695098822" x="145.0242347" y="-37.7819729" /><node id="4695098827" x="145.0240706" y="-37.7819936" /><node id="4695098828" x="145.0250594" y="-37.7818683" /><node id="4695098832" x="145.0241211" y="-37.781983" /><node id="233274930" x="144.975727" y="-37.8079891" /><node id="291210708" x="144.9652396" y="-37.8060403" /><node id="291210710" x="144.9651055" y="-37.8068371" /><node id="291210712" x="144.9659231" y="-37.8061186" /><node id="777782745" x="144.9540899" y="-37.803768" /><node id="4695098842" x="145.0243465" y="-37.7819628" /><node id="5551556066" x="145.0160351" y="-37.7835419" /><node id="1280017896" x="144.949648" y="-37.7883047" /><node id="368379390" x="144.9837845" y="-37.7796796" /><node id="3790964227" x="144.9170256" y="-37.8017011" /><node id="2400290311" x="144.9838667" y="-37.8060509" /><node id="95546286" x="144.9334593" y="-37.7952275" /><node id="518293021" x="145.0147186" y="-37.8202129" /><node id="372999711" x="144.985559" y="-37.8070567" /><node id="296027680" x="144.9452685" y="-37.8118428" /><node id="2421353393" x="145.0158579" y="-37.8073141" /><node id="291210792" x="144.9644642" y="-37.8059569" /><node id="1132070442" x="144.9433469" y="-37.8125431" /><node id="1132070443" x="144.9420656" y="-37.8119728" /><node id="1132070445" x="144.9394245" y="-37.8106104" /><node id="296027697" x="144.9447809" y="-37.8120306" /><node id="1132070451" x="144.9418662" y="-37.8118589" /><node id="1132070452" x="144.9394491" y="-37.8106761" /><node id="348718646" x="144.8947759" y="-37.814102" /><node id="296027706" x="144.946106" y="-37.8115266" /><node id="1132070459" x="144.9389256" y="-37.8103572" /><node id="1132070461" x="144.9412566" y="-37.8116351" /><node id="266733118" x="144.9906716" y="-37.8110988" /><node id="1132070465" x="144.9413083" y="-37.8115748" /><node id="1132070466" x="144.9390892" y="-37.8103795" /><node id="3394781451" x="144.9429623" y="-37.8055587" /><node id="1132070468" x="144.9432561" y="-37.81254" /><node id="1132070472" x="144.942872" y="-37.812447" /><node id="1132070474" x="144.9392049" y="-37.8103795" /><node id="1132070475" x="144.9387888" y="-37.8103328" /><node id="1132070477" x="144.9413365" y="-37.8122614" /><node id="1132070479" x="144.9394178" y="-37.8105649" /><node id="1132070480" x="144.9411325" y="-37.8123705" /><node id="1132070481" x="144.9450824" y="-37.8119128" /><node id="608962132" x="144.9993645" y="-37.8078077" /><node id="1132070487" x="144.9424858" y="-37.8122231" /><node id="1132070489" x="144.9437448" y="-37.812462" /><node id="1132070491" x="144.9394338" y="-37.8106443" /><node id="4809590391" x="144.9025361" y="-37.8021825" /><node id="608962176" x="145.0091497" y="-37.8031629" /><node id="608962181" x="145.0092333" y="-37.8029278" /><node id="608962182" x="145.0093187" y="-37.8028251" /><node id="608962183" x="145.0094138" y="-37.8028616" /><node id="608962184" x="145.0094388" y="-37.8028165" /><node id="3855648395" x="144.8721326" y="-37.8097017" /><node id="75105959" x="144.8972583" y="-37.7994945" /><node id="767592114" x="144.973188" y="-37.8083771" /><node id="767592115" x="144.9731558" y="-37.8085307" /><node id="767592116" x="144.9731464" y="-37.8086017" /><node id="4752115386" x="144.8993209" y="-37.8167579" /><node id="777782973" x="144.9539765" y="-37.8044137" /><node id="266733258" x="144.978232" y="-37.8098985" /><node id="84346572" x="144.9315516" y="-37.7878711" /><node id="1629170637" x="144.9861282" y="-37.7799432" /><node id="361268958" x="144.9780151" y="-37.7982848" /><node id="518293233" x="145.0146499" y="-37.8202199" /><node id="3879092525" x="144.8780087" y="-37.8197938" /><node id="320848174" x="144.8729371" y="-37.8074821" /><node id="2187986713" x="144.9720366" y="-37.8115654" /><node id="2931394341" x="144.8843437" y="-37.8010859" /><node id="3862791979" x="144.9832675" y="-37.8116974" /><node id="86673207" x="144.9307636" y="-37.7944882" /><node id="370476858" x="145.0274964" y="-37.8000472" /><node id="3953461057" x="144.9010401" y="-37.8015255" /><node id="1985546059" x="144.9642593" y="-37.806941" /><node id="370476878" x="145.0274644" y="-37.8000944" /><node id="1618511715" x="144.9807688" y="-37.7797117" /><node id="247007089" x="144.967153" y="-37.8097324" /><node id="247007096" x="144.9675642" y="-37.8096131" /><node id="4631922556" x="144.9435414" y="-37.804992" /><node id="4631922557" x="144.9432989" y="-37.8049686" /><node id="127371141" x="145.0362686" y="-37.7951661" /><node id="127371142" x="145.0363673" y="-37.7951672" /><node id="224757641" x="144.9931365" y="-37.8072913" /><node id="127371147" x="145.0361946" y="-37.7953455" /><node id="127371148" x="145.0361889" y="-37.7952179" /><node id="938149791" x="144.9701024" y="-37.8007919" /><node id="4716365735" x="144.8984356" y="-37.8064262" /><node id="4716365736" x="144.8995016" y="-37.8067317" /><node id="4716365737" x="144.9001913" y="-37.8069312" /><node id="462849962" x="145.0618432" y="-37.8104994" /><node id="224757682" x="144.9941797" y="-37.8073834" /><node id="2614473200" x="144.9902586" y="-37.8154468" /><node id="767592374" x="144.9733125" y="-37.8078938" /><node id="1367607237" x="144.9706506" y="-37.8002952" /><node id="1367607240" x="144.9717499" y="-37.7996936" /><node id="702351318" x="144.9365972" y="-37.804982" /><node id="250480602" x="145.0058842" y="-37.8118559" /><node id="250480609" x="145.0063192" y="-37.8111224" /><node id="4443178995" x="144.9384858" y="-37.7854404" /><node id="777759743" x="144.9572116" y="-37.8060843" /><node id="250480641" x="145.005486" y="-37.8110388" /><node id="3980971772" x="144.9494234" y="-37.8160795" /><node id="767592455" x="144.9733064" y="-37.8079299" /><node id="250480649" x="145.0047212" y="-37.8109632" /><node id="54396941" x="144.9487163" y="-37.8000242" /><node id="250480655" x="145.003222" y="-37.8108189" /><node id="3855648786" x="144.871208" y="-37.8101977" /><node id="250480659" x="145.003438" y="-37.8094735" /><node id="250480662" x="145.0008942" y="-37.8092109" /><node id="250480666" x="145.0015254" y="-37.8106542" /><node id="250480669" x="145.0023363" y="-37.8107328" /><node id="250480672" x="145.0025535" y="-37.8093802" /><node id="250480677" x="145.0017436" y="-37.809295" /><node id="4815356253" x="144.9671282" y="-37.8074224" /><node id="3529934913" x="144.9152586" y="-37.8077572" /><node id="3529934921" x="144.9144864" y="-37.8076796" /><node id="702351447" x="144.9377278" y="-37.8053775" /><node id="4520380508" x="144.9564074" y="-37.8116682" /><node id="4520380509" x="144.9563728" y="-37.8116782" /><node id="2005895266" x="144.9665068" y="-37.8028167" /><node id="4520380515" x="144.9563424" y="-37.8116871" /><node id="2005895268" x="144.9664039" y="-37.8033985" /><node id="168396901" x="144.9613741" y="-37.8114081" /><node id="767661756" x="144.973072" y="-37.8076995" /><node id="4520380523" x="144.9568527" y="-37.8127191" /><node id="2031323244" x="144.9840357" y="-37.7797079" /><node id="702351473" x="144.9379276" y="-37.8054443" /><node id="702351474" x="144.9383219" y="-37.8055895" /><node id="702351475" x="144.9388946" y="-37.8058215" /><node id="3189540981" x="144.8776746" y="-37.8197573" /><node id="702351481" x="144.9408821" y="-37.8056711" /><node id="702351482" x="144.941098" y="-37.8055873" /><node id="702351483" x="144.941322" y="-37.8055005" /><node id="1427015807" x="144.9936134" y="-37.777937" /><node id="767592583" x="144.9732937" y="-37.808003" /><node id="767658128" x="144.9733168" y="-37.8067611" /><node id="767658129" x="144.9733777" y="-37.8067667" /><node id="767658130" x="144.9734147" y="-37.8067707" /><node id="3427731617" x="144.8838244" y="-37.8022967" /><node id="390924452" x="144.9499459" y="-37.7975467" /><node id="2358053032" x="144.9885087" y="-37.812075" /><node id="244222121" x="144.9704612" y="-37.8003993" /><node id="321536370" x="144.8847672" y="-37.8186209" /><node id="2358053038" x="144.9885241" y="-37.812264" /><node id="2358053039" x="144.988284" y="-37.813252" /><node id="2358053041" x="144.9884464" y="-37.8121329" /><node id="2358053042" x="144.9884682" y="-37.8121004" /><node id="2358053043" x="144.9883692" y="-37.8132234" /><node id="2358053044" x="144.9886158" y="-37.8122662" /><node id="2358053045" x="144.9884203" y="-37.8132273" /><node id="244222135" x="144.9727149" y="-37.7990652" /><node id="244222138" x="144.9727542" y="-37.7990528" /><node id="2358053051" x="144.9885697" y="-37.8122715" /><node id="2358053052" x="144.9884399" y="-37.8121693" /><node id="127638288" x="144.9467296" y="-37.8095852" /><node id="1430915279" x="145.0142572" y="-37.7838196" /><node id="4826317178" x="144.8986168" y="-37.8063346" /><node id="634783966" x="144.9361316" y="-37.8116387" /><node id="634783967" x="144.9363643" y="-37.8114761" /><node id="906234081" x="145.0079732" y="-37.80211" /><node id="906234082" x="145.0060987" y="-37.801079" /><node id="906234083" x="145.0072282" y="-37.8017719" /><node id="906234084" x="145.0065842" y="-37.8013707" /><node id="906234085" x="145.0056016" y="-37.8008524" /><node id="906234086" x="145.0053962" y="-37.8007886" /><node id="906234087" x="145.003571" y="-37.8007826" /><node id="906234088" x="145.0075727" y="-37.8019309" /><node id="906234089" x="145.0048134" y="-37.8007309" /><node id="906234090" x="145.0091393" y="-37.8026077" /><node id="906234091" x="145.0070009" y="-37.8016431" /><node id="906234092" x="145.0062816" y="-37.8011834" /><node id="906234093" x="145.0067066" y="-37.8014382" /><node id="906234094" x="145.0058592" y="-37.8009496" /><node id="906234095" x="145.0032655" y="-37.8008536" /><node id="906234096" x="145.0067632" y="-37.8014828" /><node id="266086329" x="145.0143903" y="-37.7837918" /><node id="906234098" x="145.0093351" y="-37.8026895" /><node id="906234099" x="145.0087633" y="-37.8024551" /><node id="348227834" x="145.0191516" y="-37.7830204" /><node id="309969280" x="145.0335515" y="-37.8057905" /><node id="1430915344" x="145.0147945" y="-37.7837294" /><node id="2484734229" x="144.9288394" y="-37.7880474" /><node id="1430915353" x="145.0097747" y="-37.7840594" /><node id="781093174" x="145.0128635" y="-37.8136295" /><node id="781093179" x="145.0128488" y="-37.8135447" /><node id="781093184" x="145.0129051" y="-37.8134737" /><node id="2309691105" x="144.9002576" y="-37.803882" /><node id="233245002" x="144.9863653" y="-37.7963435" /><node id="5380278630" x="144.8984382" y="-37.8217798" /><node id="5380278631" x="144.8984213" y="-37.8218424" /><node id="623023848" x="144.8970882" y="-37.8056503" /><node id="370477432" x="145.0195781" y="-37.806708" /><node id="767658367" x="144.9732323" y="-37.8073053" /><node id="420022665" x="144.9972062" y="-37.8096777" /><node id="420022666" x="144.9964897" y="-37.8115122" /><node id="420022670" x="144.9975025" y="-37.8111528" /><node id="1953967173" x="144.9594925" y="-37.8019674" /><node id="420022688" x="144.9972169" y="-37.8095802" /><node id="1833142692" x="144.8813224" y="-37.8020367" /><node id="1833142694" x="144.8816402" y="-37.8026089" /><node id="1833142699" x="144.8830631" y="-37.8037719" /><node id="417270188" x="144.9888787" y="-37.809813" /><node id="370477489" x="145.0184623" y="-37.8065809" /><node id="3215106497" x="144.9524056" y="-37.8077142" /><node id="370477495" x="145.0170917" y="-37.8061147" /><node id="462850492" x="145.0630462" y="-37.8106435" /><node id="4413196741" x="144.902051" y="-37.801083" /><node id="4413196743" x="144.9018535" y="-37.8011695" /><node id="4413196745" x="144.901598" y="-37.8012813" /><node id="4413196747" x="144.901328" y="-37.8013995" /><node id="4413196749" x="144.9005066" y="-37.8017531" /><node id="55118295" x="144.9578806" y="-37.7996308" /><node id="332794352" x="145.004336" y="-37.8095022" /><node id="332794353" x="145.0037594" y="-37.8094496" /><node id="332794360" x="145.0048474" y="-37.8087768" /><node id="332794361" x="145.0050696" y="-37.8088018" /><node id="332794362" x="145.0054144" y="-37.8088123" /><node id="332794363" x="145.0056702" y="-37.8087506" /><node id="332794364" x="145.0058791" y="-37.8086573" /><node id="332794365" x="145.0060425" y="-37.8086148" /><node id="332794366" x="145.0067071" y="-37.8086792" /><node id="580160001" x="144.9368464" y="-37.7994828" /><node id="2481930669" x="145.0034029" y="-37.8096921" /><node id="306383379" x="144.9417417" y="-37.8053733" /><node id="702450201" x="144.9440242" y="-37.8054558" /><node id="767658527" x="144.9732904" y="-37.8076272" /><node id="320848304" x="144.8760857" y="-37.8021193" /><node id="2481930673" x="145.0037593" y="-37.8104531" /><node id="273116252" x="144.890856" y="-37.8044983" /><node id="412650030" x="144.9799831" y="-37.7990831" /><node id=