<routes><vType accel="2.6" decel="7.4" id="Car0" length="23.2" maxSpeed="69" sigma="0.0" /><vType accel="2.7" decel="4.8" id="Car1" length="10.0" maxSpeed="82" sigma="0.0" /><vType accel="1.9" decel="5.4" id="Car2" length="17.6" maxSpeed="100" sigma="0.0" /><vType accel="2.6" decel="6.3" id="Car3" length="13.9" maxSpeed="93" sigma="0.0" /><vType accel="2.3" decel="4.5" id="Car4" length="22.8" maxSpeed="63" sigma="0.0" /><vType accel="1.8" decel="4.4" id="Car5" length="20.7" maxSpeed="117" sigma="0.0" /><vType accel="2.4" decel="4.6" id="Car6" length="10.6" maxSpeed="89" sigma="0.0" /><route edges="1928298965_313441047 313441047_313440696 313440696_313254247 313254247_313254248 313254248_313254135 313254135_313254237 313254237_313254107 313254107_313254089 313254089_313140253 313140253_313140004 313140004_313140309 313140309_313140381 313140381_313140108 313140108_670001388 670001388_313140003 313140003_4889662608 4889662608_313140000 313140000_310001316 310001316_5315879306 5315879306_310001318 310001318_530329329 530329329_530329237 530329237_604125669 604125669_310001315 310001315_4695022400 4695022400_4695022177 4695022177_4695022397 4695022397_310001311 310001311_3496672103 3496672103_311902363 311902363_310001304 310001304_309977100 309977100_2123710642 2123710642_370482122 370482122_2123710629 2123710629_370482116 370482116_2123710640 2123710640_370482121 370482121_2123710630 2123710630_370482117 370482117_309977235 309977235_309977505 309977505_309977300 309977300_309977428 309977428_309977132 309977132_263991606 263991606_4679496738 4679496738_3996716075 3996716075_3996716076 3996716076_4679496928 4679496928_3996716077 3996716077_3996716078 3996716078_3996716079 3996716079_3996716080 3996716080_3996716081 3996716081_3996716085 3996716085_3996716082 3996716082_4679496921 4679496921_4679496920 4679496920_4679496919 4679496919_4679496918 4679496918_4679496787 4679496787_4679496917 4679496917_4679496916 4679496916_4679496785 4679496785_4679496784 4679496784_4679496891 4679496891_4679496783 4679496783_4679496782 4679496782_995942478 995942478_2247591096 2247591096_127390268 127390268_2247672420 2247672420_4679496898 4679496898_2247591101 2247591101_2247672417 2247672417_2247591117 2247591117_876910906 876910906_309984697 309984697_2247594822 2247594822_2247591111 2247591111_2247591102 2247591102_2247591108 2247591108_309978619 309978619_309989441 309989441_309989117 309989117_309988243 309988243_309985040 309985040_309984722 309984722_3207120850 3207120850_1657067346 1657067346_3207120848 3207120848_3207120849 3207120849_309981758 309981758_309981463 309981463_309979012 309979012_309979139 309979139_3187861096 3187861096_3187861097 3187861097_3187861098 3187861098_3187861099 3187861099_3187861093 3187861093_3207120856 3207120856_3207120859 3207120859_3207124661 3207124661_3207124664 3207124664_3207124663 3207124663_309991301 309991301_309991300 309991300_304709132 304709132_4959772490 4959772490_304709131 304709131_304709127 304709127_370474950 370474950_304709130 304709130_2940375808 2940375808_304709017 304709017_2080740190 2080740190_2940375806 2940375806_2940375828 2940375828_2940375827 2940375827_2940375805 2940375805_2940375803 2940375803_5314352327 5314352327_5314352326 5314352326_5314352325 5314352325_5314352324 5314352324_5314352323 5314352323_5314352322 5314352322_5314352321 5314352321_5314351820 5314351820_277366101 277366101_277366102 277366102_277366103 277366103_277366104 277366104_277366105 277366105_277366106 277366106_277366107 277366107_477305826 477305826_277366108 277366108_277366109 277366109_277366110 277366110_277366111 277366111_277366112 277366112_277366113 277366113_277366114 277366114_277366115 277366115_277366116 277366116_277366117 277366117_5406797159 5406797159_277366118 277366118_492939899 492939899_277366119 277366119_277366120 277366120_541122892 541122892_541122891 541122891_541122890 541122890_541122889 541122889_541122888 541122888_541122887 541122887_541122875 541122875_541122893 541122893_541122881 541122881_541122882 541122882_541122883 541122883_541122884 541122884_2567155992 2567155992_541122843 541122843_608962184 608962184_691082186 691082186_31477182 31477182_31477181 31477181_31477180 31477180_2774434013 2774434013_31477179 31477179_128893036 128893036_31477178 31477178_31477177 31477177_31477176 31477176_4698484056 4698484056_561538868 561538868_2384157684 2384157684_906234086 906234086_906234097 906234097_906234089 906234089_906234087 906234087_1192149947 1192149947_906234095 906234095_3067843936 3067843936_827113739 827113739_128874949 128874949_4698523258 4698523258_128874985 128874985_305913666 305913666_151451933 151451933_305913661 305913661_305913663 305913663_128882514 128882514_305912827 305912827_2006034702 2006034702_2006034698 2006034698_305912820 305912820_128882501 128882501_129279518 129279518_1033063213 1033063213_1521014627 1521014627_129279422 129279422_31477171 31477171_1519471011 1519471011_355817578 355817578_355817533 355817533_2684469926 2684469926_1965865394 1965865394_266727401 266727401_1519470963 1519470963_1965865396 1965865396_1965865389 1965865389_1965865392 1965865392_370959804 370959804_1519470952 1519470952_1519470752 1519470752_384023184 384023184_3823791811 3823791811_493102261 493102261_384024182 384024182_493102256 493102256_384023187 384023187_151434597 151434597_458645612 458645612_2158807363 2158807363_3109398486 3109398486_2149732939 2149732939_151434651 151434651_233247000 233247000_233245002 233245002_233243583 233243583_2214002872 2214002872_233243402 233243402_233270656 233270656_233247021 233247021_30287474 30287474_233247032 233247032_233270770 233270770_385176258 385176258_385176790 385176790_233270786 233270786_2457712013 2457712013_233270800 233270800_2457712012 2457712012_384006353 384006353_233270817 233270817_233255184 233255184_248969233 248969233_233262815 233262815_679680988 679680988_679680985 679680985_384005174 384005174_2204643284 2204643284_233274958 233274958_30287469 30287469_30287459 30287459_30287471 30287471_233262544 233262544_233262696 233262696_233314946 233314946_233314999 233314999_243645169 243645169_233314776 233314776_4297530208 4297530208_30287464 30287464_4297530210 4297530210_652430413 652430413_233275077 233275077_652430415 652430415_233314824 233314824_4294474621 4294474621_2200514713 2200514713_2200514717 2200514717_2200514729 2200514729_233314809 233314809_4294474619 4294474619_1367589913 1367589913_4294474618 4294474618_1367589915 1367589915_1367589914 1367589914_395285981 395285981_767746315 767746315_767726026 767726026_767726006 767726006_767752598 767752598_767726007 767726007_30287406 30287406_30287414 30287414_34160616 34160616_446051232 446051232_30287401 30287401_446051231 446051231_30287413 30287413_446051230 446051230_30287386 30287386_244222508 244222508_370243915 370243915_30287405 30287405_677245570 677245570_137182987 137182987_1985549817 1985549817_472236189 472236189_472236187 472236187_366082618 366082618_1725216373 1725216373_137181126 137181126_677245571 677245571_367849048 367849048_137181091 137181091_330775681 330775681_1985546060 1985546060_137182981 137182981_356215206 356215206_356215182 356215182_356215222 356215222_356215218 356215218_356215170 356215170_356215152 356215152_356215157 356215157_356215162 356215162_2505811398 2505811398_1492410162 1492410162_1492410185 1492410185_1492410156 1492410156_1492410217 1492410217_1492410213 1492410213_312718905 312718905_775942860 775942860_33238476 33238476_3933082771 3933082771_312718293 312718293_52600140 52600140_1725216623 1725216623_3933082767 3933082767_52600163 52600163_777828239 777828239_2383215085 2383215085_307350280 307350280_777833057 777833057_777833054 777833054_777829888 777829888_777829305 777829305_777832645 777832645_777832607 777832607_307350279 307350279_767737648 767737648_775946936 775946936_775946937 775946937_775933064 775933064_775933250 775933250_775933327 775933327_775933377 775933377_775933376 775933376_774545099 774545099_2383215095 2383215095_774545122 774545122_777759693 777759693_777696327 777696327_777697599 777697599_777697592 777697592_777697587 777697587_777703071 777703071_777743666 777743666_777703067 777703067_777746939 777746939_777710193 777710193_777721838 777721838_777710168 777710168_777787206 777787206_777778401 777778401_777778398 777778398_777787198 777787198_777778391 777778391_781005210 781005210_777778351 777778351_777778344 777778344_781005199 781005199_777778387 777778387_777778385 777778385_777775931 777775931_777775583 777775583_777778380 777778380_777778529 777778529_777778530 777778530_780982646 780982646_780979435 780979435_702465424 702465424_702465421 702465421_702459929 702459929_287629445 287629445_702459892 702459892_702459975 702459975_702459973 702459973_43251976 43251976_3218293536 3218293536_702451486 702451486_702451481 702451481_702451424 702451424_702462230 702462230_3394779117 3394779117_3094966843 3094966843_572005110 572005110_3094966842 3094966842_572004507 572004507_287630668 287630668_287630670 287630670_287630661 287630661_387152942 387152942_702451433 702451433_3394764077 3394764077_702478083 702478083_702451442 702451442_702451772 702451772_287630734 287630734_702450201 702450201_287630779 287630779_387152981 387152981_127601472 127601472_702378614 702378614_332549401 332549401_702378648 702378648_702378647 702378647_332544824 332544824_332543902 332543902_3394781452 3394781452_702363904 702363904_130038130 130038130_130038129 130038129_702363903 702363903_130038128 130038128_130038127 130038127_306383379 306383379_702363855 702363855_702363888 702363888_30942253 30942253_702351483 702351483_702351482 702351482_702351481 702351481_130038331 130038331_130038330 130038330_130038296 130038296_130038295 130038295_130038294 130038294_130038293 130038293_130038292 130038292_30942252 30942252_5556315220 5556315220_4793613068 4793613068_4794459457 4794459457_5556316727 5556316727_5556316745 5556316745_4794459456 4794459456_5556315207 5556315207_5556315206 5556315206_4793613067 4793613067_4793613066 4793613066_4793613065 4793613065_5556316823 5556316823_5556316824 5556316824_5556316822 5556316822_5556316813 5556316813_5556316810 5556316810_5556316809 5556316809_5556316808 5556316808_5322615232 5322615232_76459258 76459258_4415760632 4415760632_3285633576 3285633576_2172718107 2172718107_76459296 76459296_3285623814 3285623814_373646060 373646060_373645976 373645976_373645935 373645935_3285622633 3285622633_373643824 373643824_2613010004 2613010004_2613010002 2613010002_373644846 373644846_3285622632 3285622632_583067729 583067729_3285622626 3285622626_75086429 75086429_202673222 202673222_202676493 202676493_1060265093 1060265093_4067315447 4067315447_75086428 75086428_2613010000 2613010000_2613009998 2613009998_4793613049 4793613049_75086426 75086426_295874707 295874707_75086425 75086425_3285622635 3285622635_3285622634 3285622634_202578382 202578382_202578380 202578380_295874836 295874836_3176128935 3176128935_202567088 202567088_122730503 122730503_2612992586 2612992586_4969348323 4969348323_1980953407 1980953407_249995135 249995135_122732708 122732708_3363087390 3363087390_3367881241 3367881241_3367881237 3367881237_249996882 249996882_249997007 249997007_3769827298 3769827298_250001736 250001736_250001977 250001977_3363089039 3363089039_4826319027 4826319027_4826319026 4826319026_4826319022 4826319022_4826319025 4826319025_4826319024 4826319024_623027573 623027573_4826317191 4826317191_4826317192 4826317192_3221150113 3221150113_4921445862 4921445862_250001151 250001151_623027565 623027565_623027562 623027562_623027560 623027560_4826317170 4826317170_4826317172 4826317172_4826317173 4826317173_1980926607 1980926607_1980926605 1980926605_250004335 250004335_5010855213 5010855213_5010855214 5010855214_1387990238 1387990238_623012736 623012736_623023839 623023839_623023841 623023841_623023842 623023842_623023843 623023843_623012733 623012733_3783327954 3783327954_3783327953 3783327953_3783327952 3783327952_3783327949 3783327949_623012192 623012192_623012185 623012185_273117199 273117199_469277407 469277407_273117541 273117541_273116554 273116554_273107228 273107228_1044261735 1044261735_273107944 273107944_273120112 273120112_1363293782 1363293782_273120110 273120110_1363293778 1363293778_273107943 273107943_273120108 273120108_1363293763 1363293763_273120106 273120106_623012711 623012711_1363293790 1363293790_273107967 273107967_344833079 344833079_663516828 663516828_1044261742 1044261742_3363091480 3363091480_273108023 273108023_1520881351 1520881351_1520881357 1520881357_1520881362 1520881362_1520881355 1520881355_616528139 616528139_3359255437 3359255437_3359255432 3359255432_3783312803 3783312803_3783312804 3783312804_320085932 320085932_616528141 616528141_320085931 320085931_616528023 616528023_320085930 320085930_320085878 320085878_616527914 616527914_616528250 616528250_616528288 616528288_616528310 616528310_616528289 616528289_616528290 616528290_616528291 616528291_616528292 616528292_616528052 616528052_616528293 616528293_320491327 320491327_320086226 320086226_320491275 320491275_320086235 320086235_320491221 320491221_250291397 250291397_2515068893 2515068893_320490834 320490834_5102884583 5102884583_320490842 320490842_3189524836 3189524836_571835330 571835330_3189524834 3189524834_3189524833 3189524833_571835329 571835329_3189524832 3189524832_320488742 320488742_320486479 320486479_320490330 320490330_320490326 320490326_2102862976 2102862976_2102862920 2102862920_2102862980 2102862980_2102862978 2102862978_2102862931 2102862931_2102862953 2102862953_2102862933 2102862933_2102862927 2102862927_2102862974 2102862974_2102862921 2102862921_320490291 320490291_320490263 320490263_2102862986 2102862986_253539106 253539106_36022330 36022330_2612216110 2612216110_2612216107 2612216107_2612216111 2612216111_370708113 370708113_370708114 370708114_370708264 370708264_370708343 370708343_370708381 370708381_320852621 320852621_1833869065 1833869065_2612216102 2612216102_370708433 " id="route0" /><route edges="1928298965_313441047 313441047_313440696 313440696_313254247 313254247_313254248 313254248_313254135 313254135_313254237 313254237_313254107 313254107_313254091 313254091_313249236 313249236_313249310 313249310_313249309 313249309_313157243 313157243_313140483 313140483_313157211 313157211_313249221 313249221_313157351 313157351_313157626 313157626_2014941892 2014941892_2014941923 2014941923_2014941912 2014941912_2014941906 2014941906_2014941910 2014941910_313158148 313158148_313157350 313157350_470751936 470751936_470752410 470752410_470752412 470752412_470752414 470752414_1638511929 1638511929_1638511922 1638511922_1638511924 1638511924_279116183 279116183_3931492793 3931492793_279115054 279115054_279115053 279115053_279115052 279115052_279115051 279115051_279114727 279114727_279114726 279114726_279114350 279114350_279114349 279114349_279114348 279114348_279114347 279114347_279115879 279115879_279114346 279114346_279116257 279116257_279114345 279114345_279114344 279114344_279114343 279114343_279114342 279114342_279115878 279115878_4193334589 4193334589_279108747 279108747_279108746 279108746_279108745 279108745_3374109078 3374109078_279108744 279108744_3374109054 3374109054_3374109076 3374109076_279108743 279108743_279108742 279108742_279108741 279108741_279108740 279108740_279108710 279108710_29827166 29827166_2090712357 2090712357_2090711290 2090711290_2090711286 2090711286_1700563685 1700563685_2090711294 2090711294_2090711296 2090711296_1700563689 1700563689_2090711284 2090711284_1700563692 1700563692_2090711280 2090711280_2090711282 2090711282_1700563695 1700563695_2090711289 2090711289_3205511514 3205511514_1700563688 1700563688_1700563687 1700563687_29827157 29827157_29827156 29827156_29827155 29827155_29827154 29827154_29827153 29827153_29827152 29827152_29827151 29827151_29827150 29827150_253784412 253784412_29827957 29827957_29827149 29827149_5247997741 5247997741_29827148 29827148_29827147 29827147_29827146 29827146_471217033 471217033_266075573 266075573_29827145 29827145_3205541510 3205541510_253783186 253783186_253783184 253783184_29827143 29827143_253783183 253783183_2014648519 2014648519_29827142 29827142_723812636 723812636_723812087 723812087_723812831 723812831_266077158 266077158_723824578 723824578_60019440 60019440_723827338 723827338_723824576 723824576_60019439 60019439_60019438 60019438_723825037 723825037_723825034 723825034_1520694092 1520694092_60019434 60019434_723825021 723825021_723825019 723825019_723825017 723825017_60019433 60019433_1815646258 1815646258_1996808836 1996808836_1815646260 1815646260_3134424541 3134424541_5034412815 5034412815_5034412816 5034412816_2472143998 2472143998_266076256 266076256_1519470657 1519470657_1519470681 1519470681_60019331 60019331_810953164 810953164_810953162 810953162_1519470803 1519470803_1519470789 1519470789_810953159 810953159_1519470890 1519470890_1519470961 1519470961_1519470752 1519470752_1519470952 1519470952_370959818 370959818_151434783 151434783_2149732940 2149732940_151434770 151434770_233247093 233247093_401505348 401505348_2214002875 2214002875_233247032 233247032_233270770 233270770_385176258 385176258_385176790 385176790_233270786 233270786_2457712013 2457712013_233270800 233270800_233255206 233255206_248969231 248969231_233255184 233255184_248969233 248969233_412650030 412650030_298100832 298100832_233315265 233315265_384005174 384005174_2204643284 2204643284_233274958 233274958_30287469 30287469_30287459 30287459_30287471 30287471_233262544 233262544_233262696 233262696_233314946 233314946_233314999 233314999_243645169 243645169_233314776 233314776_4297530208 4297530208_30287464 30287464_4297530210 4297530210_652430413 652430413_233275077 233275077_4297530205 4297530205_266734181 266734181_248838949 248838949_477078642 477078642_2810324702 2810324702_2797967113 2797967113_477078776 477078776_233315285 233315285_767658130 767658130_767658129 767658129_767658128 767658128_767658367 767658367_767584931 767584931_767659043 767659043_767659045 767659045_767667492 767667492_767667831 767667831_767667826 767667826_501027474 501027474_767584716 767584716_277089909 277089909_277089910 277089910_1691676483 1691676483_3933095111 3933095111_2181275336 2181275336_2841675040 2841675040_767584383 767584383_2181275344 2181275344_3367904416 3367904416_2841675044 2841675044_2181275328 2181275328_2841675047 2841675047_2181275335 2181275335_2181275340 2181275340_2181268836 2181268836_3367904404 3367904404_26034662 26034662_245537598 245537598_245537567 245537567_596921130 596921130_245537551 245537551_245537561 245537561_596919937 596919937_245537622 245537622_245537625 245537625_1838361784 1838361784_2383211213 2383211213_2187973144 2187973144_2187770700 2187770700_2187770688 2187770688_1838361790 1838361790_176665291 176665291_176704317 176704317_176703266 176703266_176703234 176703234_176703213 176703213_176693430 176693430_176699680 176699680_714724462 714724462_176693402 176693402_2190483597 2190483597_4326586197 4326586197_4326586198 4326586198_2190483577 2190483577_168396901 168396901_168377553 168377553_168385919 168385919_168385895 168385895_168384030 168384030_2020813862 2020813862_2291073987 2291073987_2181268810 2181268810_2181275342 2181275342_2291073984 2291073984_3543021913 3543021913_3937113659 3937113659_2020813835 2020813835_2020813887 2020813887_2020813893 2020813893_703550857 703550857_319159694 319159694_33085559 33085559_2189145409 2189145409_3306876671 3306876671_2189143648 2189143648_30467895 30467895_703554591 703554591_33675616 33675616_836196624 836196624_2266563657 2266563657_296038801 296038801_2266563650 2266563650_2266563645 2266563645_4520380493 4520380493_2266563658 2266563658_4520380494 4520380494_2266563644 2266563644_3161948899 3161948899_30467863 30467863_2266563653 2266563653_2266563647 2266563647_2266563654 2266563654_2266563652 2266563652_3161948896 3161948896_30467855 30467855_2266563661 2266563661_2266563663 2266563663_3306876678 3306876678_2266563642 2266563642_35354279 35354279_3215106494 3215106494_3215106488 3215106488_259616744 259616744_387153097 387153097_259616740 259616740_30942993 30942993_3394768955 3394768955_306904051 306904051_3215106484 3215106484_3215106477 3215106477_3215106482 3215106482_332549399 332549399_3215192017 3215192017_306904043 306904043_332549406 332549406_332549400 332549400_30942261 30942261_3215192043 3215192043_127638288 127638288_3215192024 3215192024_127638260 127638260_387153033 387153033_767729252 767729252_4957734530 4957734530_4957734525 4957734525_387153004 387153004_4957734524 4957734524_4957734523 4957734523_387153005 387153005_4957734522 4957734522_387152998 387152998_4633753283 4633753283_3218226975 3218226975_387152936 387152936_387152934 387152934_767729202 767729202_702375968 702375968_702375969 702375969_702375970 702375970_387153008 387153008_702375971 702375971_702375973 702375973_702375972 702375972_332546323 332546323_702352970 702352970_387153020 387153020_702353978 702353978_702354055 702354055_332544825 332544825_332544824 332544824_332543902 332543902_3394781452 3394781452_702363904 702363904_130038130 130038130_130038129 130038129_702363903 702363903_130038128 130038128_130038127 130038127_306383379 306383379_702363855 702363855_702363888 702363888_30942253 30942253_702351483 702351483_702351482 702351482_702351481 702351481_130038331 130038331_130038330 130038330_130038296 130038296_130038295 130038295_130038294 130038294_130038293 130038293_130038292 130038292_30942252 30942252_5556315220 5556315220_4793613068 4793613068_4794459457 4794459457_5556316727 5556316727_5556316745 5556316745_4794459456 4794459456_5556315207 5556315207_5556315206 5556315206_4793613067 4793613067_4793613066 4793613066_4793613065 4793613065_5556316823 5556316823_5556316824 5556316824_5556316822 5556316822_5556316813 5556316813_5556316810 5556316810_5556316809 5556316809_5556316808 5556316808_5322615232 5322615232_76459258 76459258_4415760632 4415760632_3285633576 3285633576_2172718107 2172718107_76459296 76459296_3285623814 3285623814_373646060 373646060_373645976 373645976_373645935 373645935_3285622633 3285622633_373643824 373643824_2613010004 2613010004_2613010002 2613010002_373644846 373644846_3285622632 3285622632_583067729 583067729_3285622626 3285622626_75086429 75086429_2613010001 2613010001_202581663 202581663_202673221 202673221_202676494 202676494_4067315446 4067315446_202581660 202581660_2613009999 2613009999_2613009997 2613009997_202581658 202581658_295874707 295874707_75086425 75086425_3285622635 3285622635_3285622634 3285622634_202578382 202578382_202578380 202578380_295874836 295874836_3176128935 3176128935_202567088 202567088_122730503 122730503_5417879355 5417879355_4740947182 4740947182_4740947179 4740947179_5495352698 5495352698_4740947181 4740947181_3221150099 3221150099_583189061 583189061_583189179 583189179_583189176 583189176_5417879350 5417879350_583189170 583189170_5495352686 5495352686_583189167 583189167_2713476629 2713476629_583192758 583192758_4969348335 4969348335_5417879353 5417879353_4969348348 4969348348_4969348349 4969348349_4969348320 4969348320_4969348221 4969348221_4969348269 4969348269_4969348262 4969348262_4969348300 4969348300_827129293 827129293_122727218 122727218_344812998 344812998_583185523 583185523_583187050 583187050_583186811 583186811_1725233607 1725233607_583185524 583185524_2142166068 2142166068_122727211 122727211_122725511 122725511_2097584295 2097584295_5033687753 5033687753_4752115386 4752115386_4752128232 4752128232_2097585146 2097585146_2097585148 2097585148_2097585147 2097585147_4785338272 4785338272_348706911 348706911_583185596 583185596_250007199 250007199_5422140593 5422140593_250042564 250042564_250010024 250010024_4949987419 4949987419_4949987393 4949987393_250009962 250009962_250006988 250006988_4765991931 4765991931_4765991930 4765991930_4765991929 4765991929_250010195 250010195_4949987413 4949987413_250010272 250010272_250010273 250010273_250011263 250011263_2412004533 2412004533_250011264 250011264_122723720 122723720_250291067 250291067_4780154214 4780154214_4780154213 4780154213_321531944 321531944_3783330874 3783330874_321531690 321531690_321531594 321531594_321531494 321531494_321540252 321540252_321536619 321536619_321540253 321540253_321540261 321540261_5484183939 5484183939_320492154 320492154_3783330868 3783330868_320492315 320492315_320480779 320480779_696116921 696116921_696116922 696116922_696116923 696116923_320492144 320492144_320480232 320480232_3879092525 3879092525_3189540981 3189540981_320488136 320488136_320487375 320487375_250287939 250287939_320487333 320487333_4740979694 4740979694_320487319 320487319_320487225 320487225_320486447 320486447_3199558029 3199558029_3199558027 3199558027_320486605 320486605_4748649057 4748649057_4748649050 4748649050_320490267 320490267_5023616970 5023616970_320490209 320490209_2268149481 2268149481_320490263 320490263_2102862986 2102862986_253539106 253539106_2612216095 2612216095_3855648562 3855648562_253546135 253546135_1833869763 1833869763_253546183 253546183_1833869764 1833869764_2100795455 2100795455_2612216112 2612216112_250291406 250291406_2100795449 2100795449_253546237 253546237_36022334 36022334_36022333 36022333_3359255438 3359255438_3855646545 3855646545_250291504 250291504_2100795462 2100795462_253546192 253546192_250291418 250291418_320852504 320852504_370708114 370708114_370708264 370708264_370708343 370708343_370708381 370708381_320852621 320852621_1833869065 1833869065_2612216102 2612216102_370708433 " id="route1" /><route edges="1928298965_313441110 313441110_313440691 313440691_313441737 313441737_313254240 313254240_313139758 313139758_1928315581 1928315581_1928315592 1928315592_1928315579 1928315579_1928315589 1928315589_1928315553 1928315553_1928315555 1928315555_1928315558 1928315558_1928315573 1928315573_1928315552 1928315552_1928315586 1928315586_313139789 313139789_313254109 313254109_313139805 313139805_313254077 313254077_313139816 313139816_313441837 313441837_313139868 313139868_313139905 313139905_2381887337 2381887337_2381887352 2381887352_2245992501 2245992501_313139857 313139857_3494863650 3494863650_313139953 313139953_2381887355 2381887355_462844528 462844528_304705564 304705564_462850492 462850492_304705458 304705458_462849962 462849962_4326585010 4326585010_4326585009 4326585009_29936554 29936554_4326585008 4326585008_4142788490 4142788490_311901127 311901127_29960343 29960343_2245577417 2245577417_304705278 304705278_304705227 304705227_309975117 309975117_2815396513 2815396513_2245577418 2245577418_304705215 304705215_2815396505 2815396505_309975281 309975281_309975083 309975083_304704681 304704681_2245577415 2245577415_309975063 309975063_29960342 29960342_304704449 304704449_309972751 309972751_2245577416 2245577416_304704443 304704443_2245788924 2245788924_304704442 304704442_304701242 304701242_370482565 370482565_598493289 598493289_370482785 370482785_598493288 598493288_598493287 598493287_30948250 30948250_598493286 598493286_598493285 598493285_370482784 370482784_598493284 598493284_370482564 370482564_304700985 304700985_304700975 304700975_304700957 304700957_304704433 304704433_304700954 304700954_304704420 304704420_4739203039 4739203039_30948249 30948249_304700940 304700940_304701851 304701851_304700794 304700794_2296771813 2296771813_304700760 304700760_3506373724 3506373724_304700727 304700727_304701498 304701498_457407495 457407495_4790942983 4790942983_4790942984 4790942984_1700619562 1700619562_210734545 210734545_1522834456 1522834456_1522834356 1522834356_1522976990 1522976990_1522834323 1522834323_1522834449 1522834449_1522834345 1522834345_1522834377 1522834377_1522834355 1522834355_31477188 31477188_31477187 31477187_31477186 31477186_2940375840 2940375840_370477432 370477432_214122372 214122372_370477489 370477489_370477521 370477521_370477522 370477522_370477495 370477495_214122180 214122180_214092481 214092481_541122878 541122878_31477183 31477183_5546311686 5546311686_740374973 740374973_114268737 114268737_299026732 299026732_2567155992 2567155992_541122884 541122884_541122885 541122885_541122845 541122845_541122846 541122846_541122847 541122847_541122848 541122848_541122849 541122849_544367429 544367429_541122850 541122850_544367430 544367430_277366439 277366439_277367001 277367001_277367002 277367002_277366890 277366890_561538970 561538970_561538971 561538971_2621587173 2621587173_561538825 561538825_561538826 561538826_561538828 561538828_561538829 561538829_561538821 561538821_561538822 561538822_561538820 561538820_561538815 561538815_561538816 561538816_561538818 561538818_561538819 561538819_561538813 561538813_561538811 561538811_561538812 561538812_561538808 561538808_561538809 561538809_561538810 561538810_310949036 310949036_277367211 277367211_723969549 723969549_277367212 277367212_55846718 55846718_1986325609 1986325609_3730054579 3730054579_2481930364 2481930364_2481930362 2481930362_1986325611 1986325611_1982297474 1982297474_3427761887 3427761887_781118652 781118652_583473687 583473687_2481930530 2481930530_781120729 781120729_30287594 30287594_3121574833 3121574833_127538409 127538409_746341037 746341037_128876909 128876909_127674045 127674045_129279833 129279833_385026714 385026714_129279537 129279537_1033063252 1033063252_129279518 129279518_1033063213 1033063213_1521014627 1521014627_129279422 129279422_31477171 31477171_38779052 38779052_1519470869 1519470869_3987318539 3987318539_2469585433 2469585433_1982318493 1982318493_1996808838 1996808838_1982318498 1982318498_1982318495 1982318495_1982318491 1982318491_1982318496 1982318496_1982318499 1982318499_1982318497 1982318497_3271836587 3271836587_3271836590 3271836590_3271836585 3271836585_3271836584 3271836584_3271836586 3271836586_3271836588 3271836588_3271836591 3271836591_3271836589 3271836589_384006399 384006399_1982329495 1982329495_30287518 30287518_332127537 332127537_227324436 227324436_384017930 384017930_227324361 22