<routes><vType accel="1.8" decel="6.9" id="Car0" length="14.6" maxSpeed="93" sigma="0.0" /><vType accel="0.6" decel="3.7" id="Car1" length="24.7" maxSpeed="64" sigma="0.0" /><vType accel="1.2" decel="3.9" id="Car2" length="5.8" maxSpeed="75" sigma="0.0" /><vType accel="2.8" decel="2.6" id="Car3" length="17.6" maxSpeed="73" sigma="0.0" /><vType accel="2.4" decel="3.7" id="Car4" length="18.8" maxSpeed="102" sigma="0.0" /><vType accel="1.9" decel="4.4" id="Car5" length="22.8" maxSpeed="69" sigma="0.0" /><vType accel="1.7" decel="3.7" id="Car6" length="18.1" maxSpeed="75" sigma="0.0" /><route edges="1928298965_313441110 313441110_313440691 313440691_313441737 313441737_313254240 313254240_313139758 313139758_1928315581 1928315581_1928315592 1928315592_1928315579 1928315579_1928315589 1928315589_1928315553 1928315553_1928315555 1928315555_1928315558 1928315558_1928315573 1928315573_1928315552 1928315552_1928315586 1928315586_313139789 313139789_313254109 313254109_313139805 313139805_313254077 313254077_313139816 313139816_313140298 313140298_313139836 313139836_673083815 673083815_313139946 313139946_313140141 313140141_313140107 313140107_313140045 313140045_313248462 313248462_21643809 21643809_313248453 313248453_462859358 462859358_462868395 462868395_311901574 311901574_310001311 310001311_3496672103 3496672103_311902363 311902363_310001304 310001304_309977100 309977100_2123710642 2123710642_370482122 370482122_2123710629 2123710629_370482116 370482116_2123710640 2123710640_370482121 370482121_2123710630 2123710630_370482117 370482117_309977235 309977235_309977505 309977505_309977300 309977300_309977428 309977428_309977132 309977132_263991606 263991606_309977112 309977112_4679496745 4679496745_5300049083 5300049083_5300049087 5300049087_5300049089 5300049089_5300049084 5300049084_5300049090 5300049090_5300049091 5300049091_309971280 309971280_3996716073 3996716073_309972963 309972963_309972628 309972628_2938993273 2938993273_309972524 309972524_309972464 309972464_309972099 309972099_309971848 309971848_309971064 309971064_1260373746 1260373746_309971278 309971278_2247591109 2247591109_2247591099 2247591099_2247594824 2247594824_309971077 309971077_309985025 309985025_309970358 309970358_309970191 309970191_2080740198 2080740198_3207124707 3207124707_309969854 309969854_4204671723 4204671723_2247655069 2247655069_4802879114 4802879114_2245347126 2245347126_304701810 304701810_2245347115 2245347115_4288151624 4288151624_3071689094 3071689094_3071689559 3071689559_304700794 304700794_2296771813 2296771813_304700760 304700760_3506373724 3506373724_304700727 304700727_304701498 304701498_457407495 457407495_4790942983 4790942983_4790942984 4790942984_1700619562 1700619562_210734545 210734545_1522834456 1522834456_1522834356 1522834356_1522976990 1522976990_1522834323 1522834323_1522834449 1522834449_1522834336 1522834336_1522566160 1522566160_2347234660 2347234660_1522566180 1522566180_210772014 210772014_21643829 21643829_304708795 304708795_1522566240 1522566240_1522566124 1522566124_304709133 304709133_1522566236 1522566236_2080740205 2080740205_1487227940 1487227940_1522566210 1522566210_1522566141 1522566141_1487228109 1487228109_1487227910 1487227910_304700558 304700558_304709018 304709018_31477190 31477190_214092456 214092456_304700568 304700568_31477189 31477189_31477188 31477188_31477187 31477187_31477186 31477186_304699987 304699987_214122166 214122166_214122332 214122332_214122309 214122309_214122288 214122288_214122280 214122280_2940388711 2940388711_214122268 214122268_2940388712 2940388712_214122245 214122245_2940388713 2940388713_214122218 214122218_2940388714 2940388714_2940388709 2940388709_214122197 214122197_214122180 214122180_214092481 214092481_541122878 541122878_541122879 541122879_541122877 541122877_541122876 541122876_541122875 541122875_541122874 541122874_541122873 541122873_541122872 541122872_541122871 541122871_541122899 541122899_541122901 541122901_541122902 541122902_541122903 541122903_541122904 541122904_541122884 541122884_541122885 541122885_541122845 541122845_541122905 541122905_906234098 906234098_906234090 906234090_906234099 906234099_906234081 906234081_906234088 906234088_906234083 906234083_906234091 906234091_906234096 906234096_906234093 906234093_906234084 906234084_906234092 906234092_906234082 906234082_906234094 906234094_906234085 906234085_2384157684 2384157684_561538868 561538868_31477175 31477175_305909758 305909758_31477174 31477174_906234095 906234095_3067843936 3067843936_827113739 827113739_128874949 128874949_4698523257 4698523257_128882462 128882462_128882408 128882408_3065030524 3065030524_3065030525 3065030525_128882422 128882422_128874960 128874960_305913668 305913668_3065030523 3065030523_305913665 305913665_128882436 128882436_305912824 305912824_2176972919 2176972919_305912820 305912820_128882501 128882501_129279518 129279518_1033063213 1033063213_1521014627 1521014627_129279422 129279422_31477171 31477171_38779052 38779052_248969197 248969197_1519470760 1519470760_227324606 227324606_356474935 356474935_227324666 227324666_356474868 356474868_30287517 30287517_356474514 356474514_227324563 227324563_356474318 356474318_356474260 356474260_227324467 227324467_356474167 356474167_227324395 227324395_384006483 384006483_1985429676 1985429676_2469585431 2469585431_1095506178 1095506178_227770398 227770398_448078442 448078442_2213981044 2213981044_227766956 227766956_31477169 31477169_2213981047 2213981047_4297530170 4297530170_385176510 385176510_385176258 385176258_385176790 385176790_233270786 233270786_2457712013 2457712013_233270800 233270800_233255206 233255206_248969231 248969231_412650031 412650031_302567006 302567006_412650030 412650030_298100832 298100832_233315265 233315265_384005174 384005174_2204643284 2204643284_233274958 233274958_2204643308 2204643308_361268957 361268957_540050221 540050221_540050220 540050220_540050219 540050219_389150540 389150540_389150537 389150537_388569480 388569480_4000075632 4000075632_2199393936 2199393936_4294474597 4294474597_4294474596 4294474596_2199393955 2199393955_4000075630 4000075630_4000075629 4000075629_4294470722 4294470722_244222136 244222136_230778341 230778341_305538882 305538882_2325395482 2325395482_33318861 33318861_34160626 34160626_305540213 305540213_31402957 31402957_31402956 31402956_1287222135 1287222135_1287222119 1287222119_3961293504 3961293504_1287222232 1287222232_1287222165 1287222165_1287222159 1287222159_1287222198 1287222198_1287222143 1287222143_1287222186 1287222186_1287222163 1287222163_1287222258 1287222258_1287222218 1287222218_1287239201 1287239201_1287339272 1287339272_1287239271 1287239271_1287239240 1287239240_1287339281 1287339281_1287239206 1287239206_1985549819 1985549819_1985549818 1985549818_1985549817 1985549817_472236189 472236189_472236187 472236187_366082618 366082618_1725216373 1725216373_137181126 137181126_677245571 677245571_367849048 367849048_367849053 367849053_4419701257 4419701257_1492410146 1492410146_1492410212 1492410212_1492169325 1492169325_1492169330 1492169330_2992062893 2992062893_1492169253 1492169253_1492169261 1492169261_1492169336 1492169336_1492169348 1492169348_1492169335 1492169335_1879269418 1879269418_1996608006 1996608006_257506658 257506658_2185303481 2185303481_1881118510 1881118510_33238480 33238480_1888086803 1888086803_312719435 312719435_312719437 312719437_5427944926 5427944926_52600109 52600109_5427967046 5427967046_4069715678 4069715678_52600101 52600101_1877472370 1877472370_5427967042 5427967042_55118295 55118295_778812532 778812532_778809794 778809794_2209383495 2209383495_4326586167 4326586167_4326586166 4326586166_2209383610 2209383610_778809792 778809792_778809779 778809779_778802605 778802605_778802602 778802602_778804848 778804848_778802599 778802599_778802597 778802597_1492416115 1492416115_778802594 778802594_778802587 778802587_778802582 778802582_30240831 30240831_30993509 30993509_777905274 777905274_777905273 777905273_777912975 777912975_777912972 777912972_777912969 777912969_777912966 777912966_777912959 777912959_777915035 777915035_777915033 777915033_777915031 777915031_1283628999 1283628999_1833120502 1833120502_210397146 210397146_1281079287 1281079287_4460254039 4460254039_1833120526 1833120526_35523917 35523917_1283618030 1283618030_2096325818 2096325818_2096325834 2096325834_2096325820 2096325820_2096325801 2096325801_2096325822 2096325822_2096325832 2096325832_2096325821 2096325821_1686718973 1686718973_475511486 475511486_54401918 54401918_283334322 283334322_1994687844 1994687844_128684578 128684578_35524093 35524093_53132201 53132201_1994687836 1994687836_3211864064 3211864064_3211864063 3211864063_54405148 54405148_283334391 283334391_283334330 283334330_2371476475 2371476475_387153063 387153063_2371476474 2371476474_2371476472 2371476472_2371476473 2371476473_54396946 54396946_283334331 283334331_54404478 54404478_283334500 283334500_54396941 54396941_3094966835 3094966835_3094966834 3094966834_387153040 387153040_362879936 362879936_362878340 362878340_2207661123 2207661123_2207661118 2207661118_2207661051 2207661051_2207663837 2207663837_2207663825 2207663825_2207663839 2207663839_1982492360 1982492360_1982492359 1982492359_137154094 137154094_137154123 137154123_3222703081 3222703081_3222703080 3222703080_1686695072 1686695072_1686695067 1686695067_1686695063 1686695063_580026120 580026120_127588852 127588852_781145741 781145741_2206276200 2206276200_125386156 125386156_137148242 137148242_95554473 95554473_3907441680 3907441680_251083833 251083833_580160001 580160001_3260985583 3260985583_3907441681 3907441681_3094967060 3094967060_2142179147 2142179147_95554476 95554476_3907441682 3907441682_95559042 95559042_95554477 95554477_95554478 95554478_95554479 95554479_3211892694 3211892694_95558204 95558204_4804868833 4804868833_202464190 202464190_1201417377 1201417377_4804868831 4804868831_4804868832 4804868832_123330902 123330902_123348703 123348703_123348403 123348403_123349061 123349061_123336674 123336674_2726408529 2726408529_123349507 123349507_123339761 123339761_123343221 123343221_123343223 123343223_583177544 583177544_123344642 123344642_1713480029 1713480029_67617094 67617094_1713471333 1713471333_1354965851 1354965851_202522752 202522752_202522745 202522745_1112411407 1112411407_1112411379 1112411379_1112411390 1112411390_1112411445 1112411445_1112411450 1112411450_1112411427 1112411427_130044430 130044430_130043644 130043644_3790949326 3790949326_3790949327 3790949327_3790949328 3790949328_3790949329 3790949329_3790949330 3790949330_3790949331 3790949331_583197079 583197079_622959760 622959760_130042127 130042127_5536422989 5536422989_622959751 622959751_314471695 314471695_2089553092 2089553092_249995251 249995251_622991399 622991399_622991395 622991395_1980974594 1980974594_1980974596 1980974596_616534646 616534646_616534550 616534550_616534378 616534378_249997611 249997611_2689711295 2689711295_249998932 249998932_616534997 616534997_249997007 249997007_249997008 249997008_616537413 616537413_616537592 616537592_250042862 250042862_1980953427 1980953427_2435998812 2435998812_2435998813 2435998813_2435998814 2435998814_4790887538 4790887538_4790886670 4790886670_2435998810 2435998810_4717969677 4717969677_348740779 348740779_4683319519 4683319519_4746494709 4746494709_4683319517 4683319517_4683319511 4683319511_583186184 583186184_4746494697 4746494697_4683319510 4683319510_583186181 583186181_583186179 583186179_583186212 583186212_583186177 583186177_583186176 583186176_4746494692 4746494692_583186175 583186175_583186173 583186173_4921454155 4921454155_4921454154 4921454154_4921454159 4921454159_4921454158 4921454158_250007040 250007040_4949987630 4949987630_4680892742 4680892742_4949987629 4949987629_4949987410 4949987410_250006985 250006985_4949987411 4949987411_250006987 250006987_4949987403 4949987403_4765991950 4765991950_4765991949 4765991949_4949987405 4949987405_348718456 348718456_250008162 250008162_250291195 250291195_4087489253 4087489253_250291196 250291196_663516316 663516316_4903344787 4903344787_32476610 32476610_581229787 581229787_321530548 321530548_2097588139 2097588139_2299094544 2299094544_2299094543 2299094543_321531035 321531035_616526784 616526784_4789353357 4789353357_4789353367 4789353367_4789353366 4789353366_4789353365 4789353365_4789353364 4789353364_250291197 250291197_4789353333 4789353333_4789353351 4789353351_4789353352 4789353352_4789353353 4789353353_4789353354 4789353354_4789353335 4789353335_4789353339 4789353339_4789353341 4789353341_4789353342 4789353342_4789353343 4789353343_4789353336 4789353336_321532451 321532451_4789353337 4789353337_250291199 250291199_4789353338 4789353338_2515069015 2515069015_616526981 616526981_5001533625 5001533625_3359237949 3359237949_4815024755 4815024755_4815024766 4815024766_320492433 320492433_320491673 320491673_320491981 320491981_320491983 320491983_320491661 320491661_2867881404 2867881404_2867881403 2867881403_571835726 571835726_571835365 571835365_571835364 571835364_571835362 571835362_571835717 571835717_571835360 571835360_571835359 571835359_571835677 571835677_571835358 571835358_571835673 571835673_571835357 571835357_571835675 571835675_571835356 571835356_571835355 571835355_571835354 571835354_571835353 571835353_571835352 571835352_571835351 571835351_3189524835 3189524835_571835330 571835330_3189524834 3189524834_3189524833 3189524833_571835329 571835329_3189524832 3189524832_320488742 320488742_320486479 320486479_320490330 320490330_320490326 320490326_2102862976 2102862976_2102862920 2102862920_2102862980 2102862980_2102862972 2102862972_2102862942 2102862942_2102862951 2102862951_2102862982 2102862982_2102862927 2102862927_2102862974 2102862974_2102862921 2102862921_320490291 320490291_320490263 320490263_2102862986 2102862986_253539106 253539106_36022330 36022330_2612216110 2612216110_2299087307 2299087307_2299087308 2299087308_253539094 253539094_4817416063 4817416063_4817416054 4817416054_36022329 36022329_36022328 36022328_2299087316 2299087316_2299087319 2299087319_2299087318 2299087318_2299087321 2299087321_370708433 " id="route0" /><route edges="1928298965_313441110 313441110_313440691 313440691_313441737 313441737_313254240 313254240_313139758 313139758_1928315581 1928315581_1928315592 1928315592_1928315579 1928315579_1928315589 1928315589_1928315553 1928315553_1928315555 1928315555_1928315558 1928315558_1928315573 1928315573_1928315552 1928315552_1928315586 1928315586_313139789 313139789_313254109 313254109_313139805 313139805_313254077 313254077_313139816 313139816_313140298 313140298_313139836 313139836_673083815 673083815_313139946 313139946_313139945 313139945_1928284033 1928284033_313139944 313139944_1928284050 1928284050_313139943 313139943_2425453618 2425453618_2425453607 2425453607_313139919 313139919_311901379 311901379_311901462 311901462_311901363 311901363_319628837 319628837_2245788930 2245788930_304705278 304705278_304705227 304705227_309975117 309975117_2815396513 2815396513_2245577418 2245577418_304705215 304705215_2815396505 2815396505_309975281 309975281_309975083 309975083_304704681 304704681_2245577415 2245577415_309975063 309975063_29960342 29960342_304704449 304704449_309972751 309972751_2245577416 2245577416_304704443 304704443_2245788924 2245788924_304704442 304704442_304701242 304701242_370482565 370482565_598493289 598493289_370482785 370482785_598493288 598493288_598493287 598493287_30948250 30948250_598493286 598493286_598493285 598493285_370482784 370482784_598493284 598493284_370482564 370482564_304700985 304700985_304700975 304700975_304700957 304700957_304704433 304704433_304700954 304700954_304704420 304704420_4739203039 4739203039_30948249 30948249_304700940 304700940_304701851 304701851_304700794 304700794_2296771813 2296771813_304700760 304700760_3506373724 3506373724_304700727 304700727_304701498 304701498_457407495 457407495_304700685 304700685_5232574433 5232574433_4790942986 4790942986_4790942985 4790942985_1700619562 1700619562_210734545 210734545_1522834456 1522834456_1522834356 1522834356_1522976990 1522976990_1522834323 1522834323_1522834449 1522834449_1522834345 1522834345_1522834430 1522834430_1522834387 1522834387_537510286 537510286_1522566214 1522566214_1522566262 1522566262_1522566240 1522566240_1522566124 1522566124_304709133 304709133_1522566327 1522566327_304709129 304709129_304709019 304709019_1522566159 1522566159_370474947 370474947_2940375807 2940375807_2940375832 2940375832_2940375831 2940375831_2940375830 2940375830_2940375829 2940375829_2940375806 2940375806_2940375828 2940375828_2940375827 2940375827_2940375805 2940375805_2940375803 2940375803_5314352327 5314352327_5314352326 5314352326_5314352325 5314352325_5314352324 5314352324_5314352323 5314352323_5314352322 5314352322_5314352321 5314352321_5314351820 5314351820_277366101 277366101_277366102 277366102_277366103 277366103_277366104 277366104_277366105 277366105_277366106 277366106_277366107 277366107_477305826 477305826_277366108 277366108_277366109 277366109_277366110 277366110_277366111 277366111_277366112 277366112_277366113 277366113_277366114 277366114_277366115 277366115_277366116 277366116_277366117 277366117_5406797159 5406797159_277366118 277366118_492939899 492939899_277366119 277366119_277366120 277366120_277366121 277366121_541122895 541122895_541122896 541122896_541122897 541122897_541122898 541122898_541122872 541122872_541122871 541122871_541122899 541122899_541122901 541122901_541122902 541122902_541122903 541122903_541122904 541122904_541122884 541122884_541122885 541122885_541122845 541122845_541122905 541122905_608962184 608962184_691082186 691082186_31477182 31477182_31477181 31477181_31477180 31477180_277366882 277366882_277366883 277366883_277366884 277366884_277366885 277366885_277366886 277366886_277366887 277366887_277366889 277366889_277366891 277366891_277367003 277367003_277367004 277367004_277367005 277367005_277367006 277367006_277367007 277367007_2176972937 2176972937_277367008 277367008_277367009 277367009_277367010 277367010_277367011 277367011_277367012 277367012_277367013 277367013_277367014 277367014_277367015 277367015_277367016 277367016_277367087 277367087_277367088 277367088_277367089 277367089_277367090 277367090_277367091 277367091_277367092 277367092_277367093 277367093_277367094 277367094_277367095 277367095_277367096 277367096_277367097 277367097_277367098 277367098_277367099 277367099_277367100 277367100_277367101 277367101_310949036 310949036_277367211 277367211_723969549 723969549_277367212 277367212_55846718 55846718_1986325609 1986325609_3730054579 3730054579_2481930364 2481930364_2481930362 2481930362_1986325611 1986325611_1982297474 1982297474_3427761887 3427761887_781118652 781118652_583473687 583473687_2481930530 2481930530_781120729 781120729_30287594 30287594_3830161454 3830161454_129291097 129291097_129291065 129291065_129288610 129288610_493051265 493051265_224761654 224761654_2755279435 2755279435_224761795 224761795_224757641 224757641_224761617 224761617_224738476 224738476_222958329 222958329_248969196 248969196_222957430 222957430_223007282 223007282_493051207 493051207_224738431 224738431_222987367 222987367_356449457 356449457_493051212 493051212_301548221 301548221_301548220 301548220_717123684 717123684_301548223 301548223_4936954236 4936954236_332152166 332152166_3775020762 3775020762_332152172 332152172_4936948366 4936948366_3775019752 3775019752_233555341 233555341_2485925265 2485925265_527842694 527842694_527842712 527842712_302135273 302135273_4297530226 4297530226_302135272 302135272_224750459 224750459_224750410 224750410_364846732 364846732_2133323870 2133323870_871135414 871135414_361797592 361797592_224750210 224750210_4297530216 4297530216_4297530211 4297530211_30287464 30287464_4297530210 4297530210_652430413 652430413_233275077 233275077_652430415 652430415_233314824 233314824_4294474621 4294474621_2200514713 2200514713_2797986652 2797986652_4294474620 4294474620_2797986650 2797986650_4294474622 4294474622_2797986651 2797986651_2200514710 2200514710_767710278 767710278_3199635547 3199635547_767659828 767659828_767659825 767659825_767659823 767659823_767659820 767659820_767659817 767659817_767659814 767659814_767659045 767659045_767667492 767667492_767667831 767667831_767667826 767667826_501027474 501027474_767584716 767584716_277089909 277089909_767584652 767584652_767584572 767584572_767584149 767584149_767584651 767584651_767584650 767584650_2384091374 2384091374_1713460557 1713460557_277089855 277089855_767583992 767583992_277089834 277089834_767582148 767582148_26034664 26034664_255061161 255061161_255061151 255061151_255061155 255061155_4326568607 4326568607_4326568606 4326568606_589403294 589403294_26034663 26034663_247010194 247010194_247010179 247010179_247010166 247010166_247008040 247008040_247007096 247007096_247007089 247007089_1985557963 1985557963_26034662 26034662_245537564 245537564_1558806055 1558806055_2187770708 2187770708_2187770698 2187770698_1903722314 1903722314_2187770695 2187770695_1558806066 1558806066_1558806077 1558806077_176703213 176703213_176693430 176693430_176699680 176699680_714724462 714724462_176693402 176693402_2190483597 2190483597_4326586197 4326586197_4326586198 4326586198_2190483577 2190483577_168396901 168396901_168377553 168377553_168385919 168385919_168385895 168385895_168384030 168384030_2020813862 2020813862_2291073987 2291073987_2181268810 2181268810_2181275342 2181275342_2291073984 2291073984_3543021913 3543021913_3937113659 3937113659_2020813835 2020813835_2020813887 2020813887_2020813893 2020813893_703550857 703550857_319159694 319159694_33085559 33085559_2189145409 2189145409_3306876671 3306876671_3306876672 3306876672_3306876673 3306876673_3306876674 3306876674_3306876675 3306876675_4952477281 4952477281_3306876676 3306876676_3306876677 3306876677_2266563662 2266563662_3306876678 3306876678_2266563642 2266563642_35354279 35354279_3215106494 3215106494_3215106488 3215106488_259616744 259616744_387153097 387153097_259616740 259616740_30942993 30942993_387153098 387153098_3394768953 3394768953_35285655 35285655_3215106486 3215106486_30942994 30942994_289602599 289602599_289602608 289602608_332544910 332544910_3394738567 3394738567_332544858 332544858_332544866 332544866_3394730431 3394730431_3394730433 3394730433_3394730432 3394730432_1492131968 1492131968_1492131937 1492131937_296027713 296027713_1492131952 1492131952_296027706 296027706_305106971 305106971_3970811103 3970811103_3970811102 3970811102_3970811099 3970811099_3970811100 3970811100_3970811098 3970811098_3313036364 3313036364_3313036363 3313036363_26680088 26680088_26680087 26680087_1132070461 1132070461_26680084 26680084_1132070452 1132070452_571460260 571460260_306961201 306961201_571460262 571460262_560997595 560997595_306961195 306961195_306961188 306961188_400753614 400753614_41667993 41667993_290048317 290048317_41667991 41667991_1224872741 1224872741_304710871 304710871_304710870 304710870_3285633579 3285633579_5320613467 5320613467_5322615232 5322615232_76459258 76459258_4415760632 4415760632_3285633576 3285633576_2172718107 2172718107_76459296 76459296_3285623814 3285623814_373646060 373646060_373645976 373645976_373645935 373645935_373645955 373645955_373650770 373650770_373649883 373649883_373650772 373650772_373650774 373650774_373650775 373650775_3895976681 3895976681_373650806 373650806_35726397 35726397_129548031 129548031_129548032 129548032_129548034 129548034_129548035 129548035_129546479 129546479_129546974 129546974_129546975 129546975_129546480 129546480_373653750 373653750_373653635 373653635_202673222 202673222_202676493 202676493_1060265093 1060265093_1060265091 1060265091_1060265081 1060265081_1060265085 1060265085_202581660 202581660_2613009999 2613009999_2613009997 2613009997_202581658 202581658_295874707 295874707_75086425 75086425_3285622635 3285622635_3285622634 3285622634_202578382 202578382_202578380 202578380_295874836 295874836_3176128935 3176128935_202567088 202567088_122730503 122730503_2612992586 2612992586_2612992587 2612992587_2978466825 2978466825_2612992588 2612992588_583189866 583189866_583189536 583189536_2469612678 2469612678_2469612625 2469612625_583186868 583186868_4793613048 4793613048_583186867 583186867_583188038 583188038_583185923 583185923_583187147 583187147_583185523 583185523_344812998 344812998_122727218 122727218_583186869 583186869_122727216 122727216_4717969677 4717969677_348740779 348740779_4683319519 4683319519_4746494709 4746494709_4683319517 4683319517_4683319511 4683319511_583186184 583186184_4746494697 4746494697_4683319510 4683319510_583186181 583186181_583186179 583186179_583186212 583186212_583186177 583186177_583186176 583186176_4746494692 4746494692_583186175 583186175_583186173 583186173_583186172 583186172_4746494710 4746494710_583186167 583186167_583186171 583186171_583186168 583186168_250042777 250042777_2302923331 2302923331_4907324658 4907324658_250007200 250007200_4752117726 4752117726_4752117420 4752117420_250007759 250007759_348718400 348718400_4765991953 4765991953_4765991952 4765991952_4949987408 4949987408_4949987409 4949987409_250006987 250006987_4949987403 4949987403_4765991950 4765991950_4765991949 4765991949_4949987405 4949987405_348718456 348718456_250008162 250008162_250291195 250291195_4087489253 4087489253_250291196 250291196_663516316 663516316_4903344787 4903344787_32476610 32476610_581229787 581229787_321530548 321530548_2097588139 2097588139_2299094544 2299094544_2299094543 2299094543_321531035 321531035_616526784 616526784_4789353357 4789353357_4789353367 4789353367_4789353366 4789353366_4789353365 4789353365_4789353364 4789353364_250291197 250291197_4789353333 4789353333_4789353351 4789353351_4789353352 4789353352_4789353353 4789353353_4789353354 4789353354_4789353335 4789353335_4789353339 4789353339_4789353341 4789353341_4789353342 4789353342_4789353343 4789353343_4789353336 4789353336_321532451 321532451_4789353337 4789353337_250291199 250291199_2515069044 2515069044_320492434 320492434_3359237950 3359237950_321531266 321531266_320492346 320492346_320492154 320492154_3783330868 3783330868_320492315 320492315_320492316 320492316_122721950 122721950_122721949 122721949_320480780 320480780_4428399220 4428399220_320480232 320480232_3879092525 3879092525_3189540981 3189540981_320488136 320488136_320487375 320487375_250287939 250287939_320487333 320487333_4740979694 4740979694_320487319 320487319_320487225 320487225_320486447 320486447_320487083 320487083_320486971 320486971_320486880 320486880_2102862967 2102862967_320488417 320488417_2102862928 2102862928_320488418 320488418_320490290 320490290_2268149481 2268149481_320490263 320490263_2102862986 2102862986_253539106 253539106_36022330 36022330_2612216110 2612216110_2612216107 2612216107_2612216111 2612216111_370708113 370708113_370708114 370708114_370708264 370708264_370708343 370708343_370708381 370708381_370708380 370708380_2299087311 2299087311_2299087312 2299087312_2612216104 2612216104_2612216103 2612216103_2612216102 2612216102_370708433 " id="route1" /><route edges="1928298965_313441110 313441110_313440691 313440691_313441737 313441737_313254240 313254240_313139758 313139758_1928315581 1928315581_1928315592 1928315592_1928315579 1928315579_1928315589 1928315589_1928315553 1928315553_1928315555 1928315555_1928315558 1928315558_1928315573 1928315573_1928315552 1928315552_1928315586 1928315586_313139789 313139789_313254109 313254109_313139805 313139805_313254077 313254077_313139816 313139816_313441837 313441837_313139868 313139868_313139905 313139905_313139906 313139906_313139853 313139853_313139907 313139907_313139865 313139865_313441842 313441842_313139995 313139995_313441811 313441811_530330092 530330092_530330000 530330000_604125934 604125934_462844657 462844657_462850492 462850492_304705458 304705458_2245992601 2245992601_1928268659 1928268659_1928268655 1928268655_1928268665 1928268665_304705474 304705474_304705286 304705286_304705284 304705284_304705276 304705276_304705277 304705277_304705287 304705287_304705261 304705261_304705262 304705262_30948254 30948254_2245788933 2245788933_304704681 304704681_2245577415 2245577415_309975063 309975063_29960342 29960342_304704449 304704449_309972751 309972751_2245577416 2245577416_304704443 304704443_2938998243 2938998243_304704440 304704440_2080740191 2080740191_309972045 309972045_309972112 309972112_304704429 304704429_309971000 309971000_21643772 21643772_4000710669 4000710669_850722885 850722885_309970344 309970344_304701852 304701852_2080740194 2080740194_4802879112 4802879112_304701810 304701810_3071691488 3071691488_309969348 309969348_309969259 309969259_2245347109 2245347109_4034623519 4034623519_4034623520 4034623520_4034623521 4034623521_4790942635 4790942635_4790942634 4790942634_309979105 309979105_4169720251 4169720251_2245333840 2245333840_2245339628 2245339628_2245339643 2245339643_4169720287 4169720287_29936553 29936553_4169720259 4169720259_309978787 309978787_1522977019 1522977019_1522839079 1522839079_1522566268 1522566268_1522834359 1522834359_1522566317 1522566317_1522834449 1522834449_1522834336 1522834336_1522834355 1522834355_31477188 31477188_31477187 31477187_31477186 31477186_304699987 304699987_214122166 214122166_1426680634 1426680634_1426680629 1426680629_1426680640 1426680640_1426680638 1426680638_1426680628 1426680628_214092345 214092345_214092328 214092328_214092311 214092311_214092289 214092289_214092477 214092477_214092481 214092481_541122878 541122878_31477183 31477183_5546311686 5546311686_740374973 740374973_114268737 114268737_299026732 299026732_2567155992 2567155992_541122843 541122843_608962184 608962184_608962183 608962183_608962182 608962182_608962181 608962181_608962176 608962176_2621587167 2621587167_2621587169 2621587169_2621587171 2621587171_2621587173 2621587173_561538971 561538971_561538970 561538970_277366890 277366890_277367002 277367002_277367001 277367001_277366439 277366439_277366870 277366870_277366869 277366869_277366868 2773