<nodes><node id="287629316" x="144.9518701" y="-37.8032624" /><node id="5546311686" x="145.013087" y="-37.8043532" /><node id="572044631" x="144.9537747" y="-37.8101955" /><node id="309977100" x="145.0547873" y="-37.8037646" /><node id="4000710669" x="145.038027" y="-37.807692" /><node id="356474894" x="144.9918725" y="-37.8006246" /><node id="777771693" x="144.9599949" y="-37.8062667" /><node id="4283908114" x="144.9768239" y="-37.8078958" /><node id="309977112" x="145.048698" y="-37.8036061" /><node id="3987365913" x="144.9911362" y="-37.8095896" /><node id="227770398" x="144.9849079" y="-37.7999137" /><node id="1994687836" x="144.9513761" y="-37.8000203" /><node id="1879269418" x="144.9638501" y="-37.8002944" /><node id="278913067" x="144.9804171" y="-37.8134861" /><node id="309977132" x="145.0499762" y="-37.8032243" /><node id="210772014" x="145.0289511" y="-37.8065141" /><node id="163389490" x="144.9534586" y="-37.8137032" /><node id="227770421" x="144.9850633" y="-37.7990396" /><node id="356474935" x="144.9920191" y="-37.7997424" /><node id="4283908152" x="144.9938496" y="-37.8098635" /><node id="320846339" x="144.8800626" y="-37.8052091" /><node id="304701498" x="145.0313336" y="-37.8091816" /><node id="4283908155" x="144.9960059" y="-37.8100923" /><node id="1585403232" x="144.8918317" y="-37.8031014" /><node id="2245992514" x="145.0667642" y="-37.8110723" /><node id="282825827" x="144.9512061" y="-37.8031325" /><node id="850722885" x="145.0379324" y="-37.8076811" /><node id="4288151624" x="145.0353216" y="-37.807939" /><node id="4283908179" x="145.0086784" y="-37.8113336" /><node id="4283908181" x="145.0097679" y="-37.8114192" /><node id="4283908183" x="145.0097593" y="-37.8114484" /><node id="277366116" x="145.0153978" y="-37.8030277" /><node id="4283908187" x="145.014663" y="-37.8120407" /><node id="2940388709" x="145.0165298" y="-37.8065141" /><node id="1492131937" x="144.9469261" y="-37.8112471" /><node id="304705553" x="145.0599676" y="-37.8141657" /><node id="277366119" x="145.0142468" y="-37.8024905" /><node id="128893036" x="145.0065284" y="-37.8014629" /><node id="781093565" x="144.941832" y="-37.8021394" /><node id="1492131952" x="144.946345" y="-37.8114419" /><node id="2940388712" x="145.0167645" y="-37.8069009" /><node id="711762037" x="144.9450096" y="-37.8148522" /><node id="2940388713" x="145.0165875" y="-37.8067631" /><node id="202522745" x="144.918175" y="-37.7996019" /><node id="2481930362" x="144.9984334" y="-37.8055111" /><node id="2481930364" x="144.9986564" y="-37.8055106" /><node id="2940388714" x="145.0165311" y="-37.8066042" /><node id="123338879" x="144.9273181" y="-37.7996112" /><node id="202522752" x="144.9194515" y="-37.7988644" /><node id="123338881" x="144.9261679" y="-37.7994891" /><node id="123338882" x="144.9260993" y="-37.7994552" /><node id="373653635" x="144.9162572" y="-37.8076845" /><node id="60653700" x="144.9442898" y="-37.8135071" /><node id="60653701" x="144.9445173" y="-37.8138029" /><node id="2190483594" x="144.9623095" y="-37.8122047" /><node id="2190483597" x="144.9618758" y="-37.8112627" /><node id="309977235" x="145.0534053" y="-37.8036267" /><node id="3221150105" x="144.8999623" y="-37.8039784" /><node id="2245992601" x="145.0623209" y="-37.8105727" /><node id="176693402" x="144.9621293" y="-37.8111891" /><node id="311902363" x="145.0571107" y="-37.8040933" /><node id="55861404" x="144.9829932" y="-37.8063565" /><node id="472236189" x="144.9663317" y="-37.801998" /><node id="321118366" x="144.8904626" y="-37.8065067" /><node id="3306881184" x="144.9558159" y="-37.8118399" /><node id="122732708" x="144.9042063" y="-37.8050731" /><node id="2123710629" x="145.0547278" y="-37.8036908" /><node id="2123710630" x="145.0545815" y="-37.803714" /><node id="60653735" x="144.9432693" y="-37.812786" /><node id="3363087390" x="144.9040308" y="-37.8050226" /><node id="1985429676" x="144.9875868" y="-37.8001967" /><node id="2123710640" x="145.0546505" y="-37.8036811" /><node id="2123710642" x="145.0547753" y="-37.8037298" /><node id="176693430" x="144.9636534" y="-37.8107471" /><node id="313254077" x="145.0692452" y="-37.8078167" /><node id="320086222" x="144.8820058" y="-37.8071875" /><node id="320086226" x="144.878043" y="-37.8122031" /><node id="309977300" x="145.0522895" y="-37.8034932" /><node id="304718042" x="145.044866" y="-37.8156477" /><node id="320086235" x="144.8764376" y="-37.8120209" /><node id="313254109" x="145.0704159" y="-37.8079647" /><node id="1287339272" x="144.9672612" y="-37.7985414" /><node id="268533986" x="144.975083" y="-37.8126434" /><node id="268533987" x="144.9754017" y="-37.812548" /><node id="268533988" x="144.9752013" y="-37.81211" /><node id="268533989" x="144.9751816" y="-37.8118185" /><node id="268533991" x="144.9753622" y="-37.8118383" /><node id="4787388648" x="144.9044387" y="-37.804559" /><node id="202694889" x="144.9170008" y="-37.8041892" /><node id="373653750" x="144.916164" y="-37.807793" /><node id="596918519" x="144.9659281" y="-37.8106481" /><node id="278913068" x="144.9802213" y="-37.813503" /><node id="827113739" x="145.002678" y="-37.8008005" /><node id="4717969677" x="144.9002959" y="-37.8118549" /><node id="4790886670" x="144.9000942" y="-37.8107163" /><node id="3830161454" x="144.9960208" y="-37.8053404" /><node id="320086298" x="144.8800333" y="-37.8086546" /><node id="541122843" x="145.0098313" y="-37.8029749" /><node id="541122845" x="145.0098722" y="-37.8029019" /><node id="2481930530" x="144.9972895" y="-37.8054701" /><node id="2612216101" x="144.867133" y="-37.8116507" /><node id="2612216102" x="144.8604529" y="-37.81021" /><node id="2612216103" x="144.8599359" y="-37.8130278" /><node id="2612216104" x="144.8601459" y="-37.813492" /><node id="4785668393" x="144.9067414" y="-37.803571" /><node id="2612216106" x="144.8640014" y="-37.8124325" /><node id="2612216107" x="144.8656263" y="-37.811994" /><node id="3879092525" x="144.8780087" y="-37.8197938" /><node id="2612216110" x="144.8657932" y="-37.8120379" /><node id="2612216111" x="144.8653077" y="-37.81208" /><node id="2612216112" x="144.869757" y="-37.8112021" /><node id="541122871" x="145.0125023" y="-37.8023832" /><node id="541122872" x="145.012641" y="-37.8027747" /><node id="541122873" x="145.0128036" y="-37.8030864" /><node id="541122874" x="145.0133787" y="-37.8036308" /><node id="541122875" x="145.0143051" y="-37.8042449" /><node id="541122876" x="145.0146763" y="-37.8046337" /><node id="541122877" x="145.0150167" y="-37.8050219" /><node id="541122878" x="145.0149943" y="-37.8051732" /><node id="541122879" x="145.0150051" y="-37.8051002" /><node id="541122884" x="145.0110624" y="-37.8033633" /><node id="541122885" x="145.0108978" y="-37.8033292" /><node id="67617094" x="144.9201474" y="-37.7984668" /><node id="127639607" x="144.9455747" y="-37.8110663" /><node id="2318333325" x="144.9768719" y="-37.8076984" /><node id="541122896" x="145.0133341" y="-37.8025115" /><node id="541122897" x="145.0130374" y="-37.8026832" /><node id="541122898" x="145.0129542" y="-37.8027647" /><node id="541122899" x="145.0122555" y="-37.8026385" /><node id="309977428" x="145.0512102" y="-37.8033763" /><node id="541122901" x="145.0119997" y="-37.8029394" /><node id="123330902" x="144.9318451" y="-37.7988976" /><node id="541122903" x="145.0114836" y="-37.8032478" /><node id="541122904" x="145.0111855" y="-37.8033128" /><node id="541122905" x="145.0094654" y="-37.8027452" /><node id="1713480029" x="144.9204884" y="-37.7985159" /><node id="313254240" x="145.0726395" y="-37.8082298" /><node id="611991907" x="144.9540106" y="-37.8034238" /><node id="547586405" x="144.9855861" y="-37.8135169" /><node id="611991913" x="144.9554625" y="-37.8036544" /><node id="611991914" x="144.9556161" y="-37.8036726" /><node id="309969259" x="145.0333314" y="-37.8071492" /><node id="5063475565" x="144.9515458" y="-37.8132123" /><node id="2102878576" x="144.869824" y="-37.8109765" /><node id="304701810" x="145.0354272" y="-37.8073915" /><node id="2102878580" x="144.8698211" y="-37.811136" /><node id="4826317173" x="144.8984429" y="-37.8060103" /><node id="4826317175" x="144.8986434" y="-37.8064845" /><node id="3885834620" x="145.0597318" y="-37.8154165" /><node id="547586436" x="144.9844808" y="-37.813942" /><node id="547586437" x="144.9847561" y="-37.8139718" /><node id="3071689094" x="145.0351842" y="-37.8086512" /><node id="3199558027" x="144.8684051" y="-37.8186985" /><node id="3199558029" x="144.8684905" y="-37.8187081" /><node id="537510286" x="145.0286453" y="-37.8073268" /><node id="4283908163" x="145.0006641" y="-37.8105551" /><node id="583197079" x="144.9092465" y="-37.8008305" /><node id="547586458" x="144.9855459" y="-37.8137679" /><node id="304701851" x="145.0363777" y="-37.809801" /><node id="304701852" x="145.0368076" y="-37.8075511" /><node id="309977505" x="145.0523673" y="-37.8035017" /><node id="3176128935" x="144.9084002" y="-37.8063096" /><node id="2481930664" x="145.0032768" y="-37.8104777" /><node id="2992062893" x="144.9640665" y="-37.8005655" /><node id="21643697" x="145.0278815" y="-37.8136425" /><node id="4748648882" x="144.8608696" y="-37.8178484" /><node id="4748648884" x="144.8616633" y="-37.8179374" /><node id="3215106486" x="144.9520784" y="-37.808936" /><node id="3215106488" x="144.9521907" y="-37.8085577" /><node id="4169720251" x="145.0312496" y="-37.8066203" /><node id="710042045" x="144.9381966" y="-37.8115931" /><node id="3215106494" x="144.9531472" y="-37.8082738" /><node id="3215106497" x="144.9524056" y="-37.8077142" /><node id="476275138" x="144.9576215" y="-37.8090709" /><node id="4169720259" x="145.0304745" y="-37.8069193" /><node id="309969348" x="145.0341482" y="-37.8072436" /><node id="560997177" x="144.9369618" y="-37.8117802" /><node id="3543024078" x="144.9561923" y="-37.8117306" /><node id="3543024079" x="144.9563915" y="-37.8118762" /><node id="1928298965" x="145.0742633" y="-37.8066668" /><node id="304700786" x="145.0337703" y="-37.814331" /><node id="3933094364" x="144.9594969" y="-37.8061359" /><node id="4169720287" x="145.0306202" y="-37.8068628" /><node id="26034662" x="144.9666843" y="-37.8098683" /><node id="26034663" x="144.9691215" y="-37.8091642" /><node id="26034664" x="144.9716374" y="-37.808432" /><node id="3480502762" x="144.9041304" y="-37.8052583" /><node id="26034668" x="144.9720689" y="-37.8093347" /><node id="4061053435" x="144.9926112" y="-37.8096594" /><node id="21643772" x="145.0381593" y="-37.8077073" /><node id="4061053437" x="144.9925222" y="-37.8096732" /><node id="615170558" x="144.9854466" y="-37.7990783" /><node id="4061053441" x="144.9930454" y="-37.8097067" /><node id="4061053442" x="144.9930927" y="-37.8097119" /><node id="2481930756" x="145.0089974" y="-37.8118512" /><node id="4061053447" x="144.9931259" y="-37.8097448" /><node id="309076488" x="144.8946865" y="-37.8070398" /><node id="4061053449" x="144.9931516" y="-37.8097476" /><node id="4061053450" x="144.9931712" y="-37.8097506" /><node id="4061053453" x="144.9932051" y="-37.8097638" /><node id="4061053456" x="144.9932567" y="-37.8097839" /><node id="21643796" x="145.0596412" y="-37.8158746" /><node id="2469585431" x="144.9871887" y="-37.8001569" /><node id="129557020" x="144.9399538" y="-37.8113246" /><node id="129557021" x="144.9410449" y="-37.8119008" /><node id="129557023" x="144.9421982" y="-37.8125604" /><node id="21643809" x="145.0617198" y="-37.8049948" /><node id="2401378850" x="144.9169956" y="-37.8039626" /><node id="4288151643" x="145.043796" y="-37.8083632" /><node id="313139758" x="145.072345" y="-37.8081966" /><node id="21643829" x="145.0289569" y="-37.8061341" /><node id="313139789" x="145.0710986" y="-37.8080469" /><node id="2187874242" x="144.9660863" y="-37.8144896" /><node id="309076566" x="144.8929709" y="-37.8068233" /><node id="547013208" x="144.9471461" y="-37.7973542" /><node id="309076569" x="144.8924201" y="-37.8067538" /><node id="361775706" x="144.9877674" y="-37.7993128" /><node id="313139805" x="145.0698174" y="-37.8078916" /><node id="4748649057" x="144.8675429" y="-37.8186026" /><node id="313139816" x="145.0685612" y="-37.8077301" /><node id="448078442" x="144.984555" y="-37.799876" /><node id="344833222" x="144.8858305" y="-37.8059221" /><node id="373645935" x="144.9289451" y="-37.8088511" /><node id="4428399220" x="144.8795558" y="-37.8199646" /><node id="547013241" x="144.947002" y="-37.7981618" /><node id="313139836" x="145.0667211" y="-37.8075081" /><node id="777912959" x="144.9563" y="-37.800589" /><node id="373645955" x="144.9289276" y="-37.8090207" /><node id="1996808837" x="144.9926214" y="-37.8007" /><node id="777912966" x="144.9564046" y="-37.8006622" /><node id="777912969" x="144.9565025" y="-37.8007215" /><node id="710042251" x="144.9384096" y="-37.8118113" /><node id="777912972" x="144.9565964" y="-37.8007628" /><node id="313139853" x="145.0663628" y="-37.8093922" /><node id="710042254" x="144.9384405" y="-37.8117679" /><node id="777912975" x="144.9567225" y="-37.800802" /><node id="313139857" x="145.0653425" y="-37.8109184" /><node id="2185303491" x="144.9536127" y="-37.8100399" /><node id="710042261" x="144.9390185" y="-37.8110357" /><node id="373645976" x="144.9291692" y="-37.8088654" /><node id="313139865" x="145.0656323" y="-37.809378" /><node id="710042267" x="144.9390627" y="-37.8110146" /><node id="313139868" x="145.0682075" y="-37.8095528" /><node id="710042270" x="144.9390882" y="-37.8110082" /><node id="1928315552" x="145.0714894" y="-37.8080701" /><node id="1928315553" x="145.0715869" y="-37.8080472" /><node id="1928315555" x="145.0715632" y="-37.8080411" /><node id="1928315558" x="145.0715324" y="-37.8080425" /><node id="769188524" x="144.9741583" y="-37.8011606" /><node id="769188525" x="144.9739477" y="-37.8011793" /><node id="769188527" x="144.9733089" y="-37.8011073" /><node id="1928315573" x="145.0715068" y="-37.8080526" /><node id="775946936" x="144.958323" y="-37.8041525" /><node id="3933086393" x="144.9626971" y="-37.8065605" /><node id="547013306" x="144.9470325" y="-37.7979823" /><node id="1928315579" x="145.0716181" y="-37.8080716" /><node id="301548220" x="144.9852247" y="-37.8065557" /><node id="301548221" x="144.9860905" y="-37.8065954" /><node id="301548222" x="144.9860054" y="-37.8071034" /><node id="301548223" x="144.9843136" y="-37.8065163" /><node id="372998848" x="144.9876645" y="-37.8092246" /><node id="313139905" x="145.0670874" y="-37.8094175" /><node id="1928315586" x="145.0714809" y="-37.808091" /><node id="313139907" x="145.0661593" y="-37.8094416" /><node id="1928315589" x="145.0716037" y="-37.8080577" /><node id="313139910" x="145.0667611" y="-37.8110883" /><node id="1928315592" x="145.0716264" y="-37.8080889" /><node id="313139919" x="145.0611785" y="-37.8078117" /><node id="130045816" x="144.9089437" y="-37.8052586" /><node id="767730386" x="144.9460642" y="-37.8056896" /><node id="3161948885" x="144.9574536" y="-37.8092936" /><node id="2190483577" x="144.961734" y="-37.8113038" /><node id="250480662" x="145.0008942" y="-37.8092109" /><node id="650275631" x="144.9806089" y="-37.8135539" /><node id="3161948898" x="144.9556706" y="-37.8085118" /><node id="4746494692" x="144.8975858" y="-37.8141488" /><node id="4087489253" x="144.8920117" y="-37.8168092" /><node id="313139943" x="145.0653006" y="-37.8082966" /><node id="313139944" x="145.0654568" y="-37.8080066" /><node id="313139945" x="145.0659159" y="-37.8076329" /><node id="313139946" x="145.0659671" y="-37.8074228" /><node id="373646060" x="144.9316054" y="-37.8090742" /><node id="313139953" x="145.0641156" y="-37.8107715" /><node id="30221043" x="145.0097636" y="-37.8114336" /><node id="4746494709" x="144.8998287" y="-37.8129737" /><node id="4746494710" x="144.8973291" y="-37.8145092" /><node id="30221048" x="145.0159673" y="-37.8122155" /><node id="30221049" x="145.0368347" y="-37.8146892" /><node id="3161948922" x="144.9576682" y="-37.8089395" /><node id="1492131968" x="144.9471231" y="-37.8111783" /><node id="60653699" x="144.9438917" y="-37.813149" /><node id="313139995" x="145.0644077" y="-37.8092296" /><node id="3494863650" x="145.0647971" y="-37.8108531" /><node id="540050219" x="144.9774519" y="-37.7986046" /><node id="540050220" x="144.9777536" y="-37.7986382" /><node id="540050221" x="144.9779443" y="-37.7986593" /><node id="321119022" x="144.8864745" y="-37.8131558" /><node id="122727219" x="144.902981" y="-37.8077724" /><node id="3218293558" x="144.9549911" y="-37.8036009" /><node id="560997175" x="144.9368934" y="-37.811866" /><node id="122727220" x="144.904157" y="-37.8051846" /><node id="560997179" x="144.9371273" y="-37.8116609" /><node id="560997181" x="144.9372818" y="-37.8115796" /><node id="4273062719" x="144.9170912" y="-37.8018909" /><node id="560997186" x="144.9375736" y="-37.811505" /><node id="560997187" x="144.9377624" y="-37.8114982" /><node id="560997188" x="144.9361055" y="-37.8117547" /><node id="168398786" x="144.9607597" y="-37.8115862" /><node id="313140045" x="145.0644391" y="-37.8053189" /><node id="306381654" x="144.9418537" y="-37.8008323" /><node id="3071689559" x="145.0351093" y="-37.8090396" /><node id="2797986650" x="144.973627" y="-37.8053518" /><node id="1354965851" x="144.9197252" y="-37.7987069" /><node id="2797986652" x="144.9736687" y="-37.8053481" /><node id="317729594" x="144.9573348" y="-37.8092876" /><node id="4297530171" x="144.9846126" y="-37.7989941" /><node id="547586920" x="144.9875666" y="-37.8132017" /><node id="163373932" x="144.9540079" y="-37.813544" /><node id="250004334" x="144.8984717" y="-37.8061559" /><node id="250004335" x="144.8982489" y="-37.8058549" /><node id="600329022" x="144.9789446" y="-37.7983856" /><node id="622991383" x="144.9059801" y="-37.8012442" /><node id="767665017" x="144.9734019" y="-37.8077306" /><node id="767665024" x="144.9733475" y="-37.8076336" /><node id="2372885312" x="144.9889192" y="-37.8093612" /><node id="313140107" x="145.0657844" y="-37.8054867" /><node id="30948162" x="145.0084965" y="-37.8113359" /><node id="2200514713" x="144.9737165" y="-37.8053448" /><node id="472236187" x="144.9661252" y="-37.8019766" /><node id="313140141" x="145.0654162" y="-37.8073602" /><node id="571835310" x="144.870854" y="-37.8114718" /><node id="30220445" x="144.9914506" y="-37.8096216" /><node id="560997297" x="144.9359257" y="-37.8102505" /><node id="2291073974" x="144.9627945" y="-37.8098005" /><node id="2291073975" x="144.9622759" y="-37.8099505" /><node id="2291073976" x="144.961391" y="-37.8102099" /><node id="2291073977" x="144.9612489" y="-37.8102507" /><node id="1585423290" x="144.89323" y="-37.8023258" /><node id="1192149947" x="145.0033788" y="-37.8007741" /><node id="2291073980" x="144.9607978" y="-37.81038" /><node id="309969854" x="145.0359015" y="-37.8049434" /><node id="2291073983" x="144.959837" y="-37.8106585" /><node id="2291073984" x="144.9589795" y="-37.8109096" /><node id="571835329" x="144.8725314" y="-37.813763" /><node id="571835330" x="144.8729942" y="-37.8137549" /><node id="2291073987" x="144.9590364" y="-37.8110331" /><node id="4110787845" x="144.9960381" y="-37.8100798" /><node id="774546373" x="144.9595345" y="-37.8062153" /><node id="774546374" x="144.959634" y="-37.8062264" /><node id="2291073991" x="144.9564689" y="-37.8116451" /><node id="2291073992" x="144.9563065" y="-37.8116918" /><node id="2291073994" x="144.9563615" y="-37.8118111" /><node id="400753614" x="144.93699" y="-37.8097758" /><node id="571835347" x="144.8770032" y="-37.816207" /><node id="2291074006" x="144.9514986" y="-37.813093" /><node id="571835351" x="144.8730937" y="-37.8137942" /><node id="313139906" x="145.066535" y="-37.8093498" /><node id="571835353" x="144.8736583" y="-37.8139076" /><node id="571835354" x="144.8737749" y="-37.8139648" /><node id="571835355" x="144.874137" y="-37.8142625" /><node id="571835356" x="144.8743731" y="-37.8143992" /><node id="571835357" x="144.8746748" y="-37.8145507" /><node id="571835358" x="144.8752046" y="-37.8147213" /><node id="571835359" x="144.8756511" y="-37.8148516" /><node id="571835360" x="144.8763753" y="-37.815002" /><node id="320488417" x="144.8688114" y="-37.8149417" /><node id="571835362" x="144.8765135" y="-37.815037" /><node id="571835364" x="144.8768555" y="-37.8152542" /><node id="571835365" x="144.8771143" y="-37.8154619" /><node id="571835367" x="144.8773315" y="-37.815838" /><node id="320480232" x="144.8789476" y="-37.8198987" /><node id="571835369" x="144.8770875" y="-37.8161643" /><node id="2081997803" x="144.9907512" y="-37.8095507" /><node id="1522566124" x="145.0283619" y="-37.80538" /><node id="123339761" x="144.9261142" y="-37.7992292" /><node id="320488434" x="144.8695653" y="-37.8114583" /><node id="320488435" x="144.8696089" y="-37.8113782" /><node id="250291195" x="144.8921068" y="-37.8168201" /><node id="250291196" x="144.8909227" y="-37.8166867" /><node id="1522566141" x="145.0274472" y="-37.8071424" /><node id="250291199" x="144.8829113" y="-37.8158018" /><node id="571835393" x="144.8771297" y="-37.8161363" /><node id="4297530198" x="144.9779365" y="-37.8015976" /><node id="3285623814" x="144.9317326" y="-37.8090858" /><node id="298099723" x="144.9785723" y="-37.8016545" /><node id="4765991949" x="144.8942458" y="-37.8168956" /><node id="4765991950" x="144.8942608" y="-37.816886" /><node id="1522566159" x="145.025819" y="-37.8050905" /><node id="4765991952" x="144.894336" y="-37.8168943" /><node id="4765991953" x="144.894348" y="-37.8169083" /><node id="547587095" x="144.9902428" y="-37.8135038" /><node id="703554589" x="144.9565147" y="-37.8091964" /><node id="30942238" x="144.9094887" y="-37.8008577" /><node id="583189536" x="144.9067052" y="-37.8062214" /><node id="1522566180" x="145.0289345" y="-37.8066122" /><node id="777831467" x="144.9580896" y="-37.8039508" /><node id="777831472" x="144.9581829" y="-37.8041341" /><node id="2266563637" x="144.9555284" y="-37.8083178" /><node id="2266563638" x="144.9556761" y="-37.8084311" /><node id="2266563642" x="144.954089" y="-37.8087118" /><node id="35726397" x="144.9250892" y="-37.8087695" /><node id="2266563648" x="144.9555804" y="-37.8083323" /><node id="1522566210" x="145.0274531" y="-37.8070598" /><node id="4148228278" x="144.9739422" y="-37.8131308" /><node id="1522566214" x="145.0283329" y="-37.8072888" /><node id="2209383495" x="144.9576193" y="-37.7996903" /><node id="2102862920" x="144.8695636" y="-37.8121616" /><node id="2102862921" x="144.869145" y="-37.8122778" /><node id="313140298" x="145.0670976" y="-37.8075525" /><node id="332544866" x="144.949889" y="-37.8101114" /><node id="2266563662" x="144.954759" y="-37.808604" /><node id="2102862927" x="144.8693682" y="-37.812154" /><node id="2102862928" x="144.8687983" y="-37.8149141" /><node id="2266563665" x="144.9556805" y="-37.8084717" /><node id="781149269" x="144.9424564" y="-37.802209" /><node id="4061250646" x="144.9700611" y="-37.8009521" /><node id="878558052" x="144.9037615" y="-37.8060498" /><node id="2435998810" x="144.8996602" y="-37.8116663" /><node id="1522566236" x="145.0277481" y="-37.8054958" /><node id="2435998813" x="144.9010713" y="-37.8085993" /><node id="2435998814" x="144.9006893" y="-37.809398" /><node id="214099039" x="145.0202597" y="-37.8127368" /><node id="1522566240" x="145.0283959" y="-37.8053835" /><node id="1409483878" x="144.8764456" y="-37.8164263" /><node id="222987367" x="144.9880745" y="-37.8067851" /><node id="130045557" x="144.9098518" y="-37.8058469" /><node id="4790887538" x="144.9004999" y="-37.80983" /><node id="1522566262" x="145.0280298" y="-37.8072495" /><node id="2102862967" x="144.8688433" y="-37.8149686" /><node id="2102862968" x="144.8716737" y="-37.8161182" /><node id="777905273" x="144.9568101" y="-37.8008218" /><node id="777905274" x="144.956866" y="-37.8008296" /><node id="2102862972" x="144.8694694" y="-37.8121428" /><node id="2102862974" x="144.86929" y="-37.812223" /><node id="2102862976" x="144.8696425" y="-37.8121811" /><node id="2102862980" x="144.8694957" y="-37.8121642" /><node id="2102862982" x="144.86939" y="-37.8121406" /><node id="2102862986" x="144.8671095" y="-37.81277" /><node id="1492149402" x="144.9515654" y="-37.8132555" /><node id="1492149405" x="144.9512496" y="-37.8131556" /><node id="3367904414" x="144.9661053" y="-37.808853" /><node id="514249097" x="144.9468506" y="-37.7965558" /><node id="3367904421" x="144.963648" y="-37.8095663" /><node id="2096325801" x="144.953491" y="-37.8008011" /><node id="1522566317" x="145.0290832" y="-37.8073809" /><node id="250291379" x="144.8933466" y="-37.8137525" /><node id="583194142" x="144.9078488" y="-37.8040725" /><node id="249996470" x="144.9058304" y="-37.8015146" /><node id="1522566327" x="145.0272213" y="-37.8052454" /><node id="2096325818" x="144.9545339" y="-37.7999943" /><node id="2247591099" x="145.0393531" y="-37.8037698" /><node id="2096325820" x="144.9537663" y="-37.8005883" /><node id="2096325821" x="144.9531064" y="-37.8010634" /><node id="2096325822" x="144.9532863" y="-37.8009593" /><node id="250291395" x="144.8834758" y="-37.81282" /><node id="2247591109" x="145.0394002" y="-37.8038341" /><node id="3933095111" x="144.9703478" y="-37.8076153" /><node id="2096325832" x="144.9532056" y="-37.8010147" /><node id="518303948" x="145.0358402" y="-37.8145729" /><node id="2096325834" x="144.9541207" y="-37.8003145" /><node id="250291403" x="144.8708708" y="-37.8113845" /><node id="304710870" x="144.9347841" y="-37.8094097" /><node id="304710871" x="144.9355051" y="-37.8095046" /><node id="3970811098" x="144.9431769" y="-37.8124624" /><node id="560997595" x="144.9384715" y="-37.8102567" /><node id="3970811100" x="144.9435229" y="-37.8124772" /><node id="3970811101" x="144.9426601" y="-37.8126709" /><node id="3970811102" x="144.9448023" y="-37.8119581" /><node id="3970811103" x="144.945939" y="-37.811543" /><node id="250002299" x="144.9004949" y="-37.8062754" /><node id="4294474621" x="144.97377" y="-37.8053507" /><node id="2245788915" x="145.0469016" y="-37.8087332" /><node id="4294474622" x="144.9736136" y="-37.8053534" /><node id="2245788920" x="145.0524" y="-37.809395" /><node id="2245788924" x="145.0449397" y="-37.8084995" /><node id="2245788925" x="145.0560272" y="-37.8098308" /><node id="130042834" x="144.9118769" y="-37.8010164" /><node id="2245788930" x="145.057388" y="-37.8099602" /><node id="2245788933" x="145.0495395" y="-37.8090479" /><node id="709707019" x="144.9424611" y="-37.8127076" /><node id="309970191" x="145.0373619" y="-37.804418" /><node id="709707024" x="144.9425214" y="-37.8127283" /><node id="571835673" x="144.8747152" y="-37.8145637" /><node id="571835675" x="144.8744779" y="-37.8144519" /><node id="493102365" x="144.9890915" y="-37.7986912" /><node id="493102368" x="144.9891408" y="-37.7986505" /><node id="493102370" x="144.9891753" y="-37.798642" /><node id="2841675044" x="144.9681941" y="-37.8082466" /><node id="320846726" x="144.8744965" y="-37.808168" /><node id="320488742" x="144.8723406" y="-37.8136703" /><node id="2841675047" x="144.9664548" y="-37.8087515" /><node id="1700619562" x="145.0293849" y="-37.8082142" /><node id="2841675052" x="144.9658354" y="-37.8089313" /><node id="2774434013" x="145.0074344" y="-37.801955" /><node id="250291504" x="144.8689082" y="-37.8111131" /><node id="2841675059" x="144.9639591" y="-37.809476" /><node id="2841675060" x="144.9632669" y="-37.8096656" /><node id="2841675061" x="144.9632948" y="-37.8096688" /><node id="1080149303" x="144.9000736" y="-37.8140323" /><node id="560997692" x="144.9357626" y="-37.8107455" /><node id="348718400" x="144.894625" y="-37.8169634" /><node id="571835717" x="144.8764719" y="-37.8150265" /><node id="2181268810" x="144.9590339" y="-37.8110279" /><node id="571835726" x="144.877282" y="-37.8157122" /><node id="571835731" x="144.8770452" y="-37.8161857" /><node id="277366101" x="145.0216609" y="-37.8031816" /><node id="277366102" x="145.0212225" y="-37.8034424" /><node id="277366103" x="145.020766" y="-37.8037172" /><node id="277366104" x="145.0203985" y="-37.8038865" /><node id="277366105" x="145.0201161" y="-37.8039849" /><node id="277366106" x="145.0195922" y="-37.8040967" /><node id="277366107" x="145.0192422" y="-37.8041452" /><node id="277366108" x="145.0189074" y="-37.8041181" /><node id="277366109" x="145.0185298" y="-37.8040299" /><node id="277366110" x="145.0182489" y="-37.8039273" /><node id="277366111" x="145.0179324" y="-37.8038468" /><node id="277366112" x="145.0176105" y="-37.8038235" /><node id="277366113" x="145.0172166" y="-37.8037993" /><node id="277366114" x="145.0167531" y="-37.803684" /><node id="277366115" x="145.0161624" y="-37.8034568" /><node id="1994687844" x="144.9520798" y="-37.8004156" /><node id="277366117" x="145.0148906" y="-37.8026736" /><node id="277366118" x="145.0145948" y="-37.8025252" /><node id="2940388711" x="145.0169469" y="-37.8070344" /><node id="277366120" x="145.0139305" y="-37.8024438" /><node id="277366121" x="145.0136632" y="-37.8022971" /><node id="583189866" x="144.9067493" y="-37.8060119" /><node id="4746494697" x="144.8990799" y="-37.8136072" /><node id="2976156563" x="144.9321884" y="-37.8000629" /><node id="277363197" x="145.0121288" y="-37.8107809" /><node id="4787388649" x="144.9045057" y="-37.8044195" /><node id="348718456" x="144.8940547" y="-37.8168968" /><node id="54404478" x="144.9494538" y="-37.8001078" /><node id="287630727" x="144.9451561" y="-37.8051853" /><node id="233555341" x="144.9827549" y="-37.8078065" /><node id="287630734" x="144.9441007" y="-37.8050607" /><node id="518303983" x="145.0353473" y="-37.8145153" /><node id="634774941" x="144.9383351" y="-37.8118628" /><node id="634774942" x="144.9383203" y="-37.8117918" /><node id="634774943" x="144.9383203" y="-37.8117367" /><node id="4650608032" x="144.9464018" y="-37.8097895" /><node id="319860976" x="144.9975411" y="-37.8004569" /><node id="309970344" x="145.0377589" y="-37.807661" /><node id="2180785578" x="144.9710267" y="-37.8141209