<?xml version="1.0" encoding="UTF-8"?>

<!-- generated on 04/22/18 12:56:49 by SUMO netconvert Version 0.32.0
<?xml version="1.0" encoding="UTF-8"?>

<configuration xmlns:xsi="http://www.w3.org/2001/XMLSchema-instance" xsi:noNamespaceSchemaLocation="http://sumo.dlr.de/xsd/netconvertConfiguration.xsd">

    <input>
        <node-files value="melbourne_a_200.nod.xml"/>
        <edge-files value="melbourne_a_200.edg.xml"/>
    </input>

    <output>
        <output-file value="melbourne_a_200.net.xml"/>
    </output>

    <projection>
        <proj.utm value="true"/>
    </projection>

</configuration>
-->

<net version="0.27" xmlns:xsi="http://www.w3.org/2001/XMLSchema-instance" xsi:noNamespaceSchemaLocation="http://sumo.dlr.de/xsd/net_file.xsd">

    <location netOffset="-311448.67,4187970.58" convBoundary="0.00,0.00,19025.87,2757.10" origBoundary="144.857946,-37.820103,145.074263,-37.796417" projParameter="+proj=utm +zone=55 +ellps=WGS84 +datum=WGS84 +units=m +no_defs"/>

    <edge id=":103116481_0" function="internal">
        <lane id=":103116481_0_0" index="0" speed="13.90" length="0.10" shape="8635.76,824.56 8635.76,824.56"/>
    </edge>
    <edge id=":1033063213_0" function="internal">
        <lane id=":1033063213_0_0" index="0" speed="13.90" length="0.30" shape="11973.82,2376.03 11973.52,2376.06"/>
    </edge>
    <edge id=":1042174041_0" function="internal">
        <lane id=":1042174041_0_0" index="0" speed="13.90" length="0.29" shape="9372.15,1865.45 9372.12,1865.16"/>
    </edge>
    <edge id=":1055899454_0" function="internal">
        <lane id=":1055899454_0_0" index="0" speed="13.90" length="2.62" shape="4251.37,1886.75 4251.05,1886.11 4250.61,1885.72 4250.03,1885.60 4249.32,1885.74"/>
    </edge>
    <edge id=":1060265081_0" function="internal">
        <lane id=":1060265081_0_0" index="0" speed="13.90" length="0.40" shape="5106.42,1483.62 5106.35,1483.71 5106.30,1483.77 5106.23,1483.82 5106.14,1483.90"/>
    </edge>
    <edge id=":1060265085_0" function="internal">
        <lane id=":1060265085_0_0" index="0" speed="13.90" length="0.23" shape="5099.40,1489.16 5099.35,1489.20 5099.31,1489.23 5099.27,1489.25 5099.21,1489.29"/>
    </edge>
    <edge id=":1060265091_0" function="internal">
        <lane id=":1060265091_0_0" index="0" speed="13.90" length="0.46" shape="5110.07,1478.81 5110.02,1478.94 5109.97,1479.02 5109.92,1479.10 5109.84,1479.21"/>
    </edge>
    <edge id=":1060265093_0" function="internal">
        <lane id=":1060265093_0_0" index="0" speed="13.90" length="5.66" shape="5113.93,1474.91 5112.77,1475.25 5111.75,1476.00 5110.86,1477.15 5110.11,1478.71"/>
    </edge>
    <edge id=":1060265093_1" function="internal">
        <lane id=":1060265093_1_0" index="0" speed="13.90" length="6.61" shape="5113.93,1474.91 5107.36,1475.64"/>
    </edge>
    <edge id=":1080149303_0" function="internal">
        <lane id=":1080149303_0_0" index="0" speed="13.90" length="0.13" shape="3706.91,712.12 3706.86,712.00"/>
    </edge>
    <edge id=":1095506178_0" function="internal">
        <lane id=":1095506178_0_0" index="0" speed="13.90" length="0.10" shape="11235.57,2433.86 11235.57,2433.86"/>
    </edge>
    <edge id=":1112411379_0" function="internal">
        <lane id=":1112411379_0_0" index="0" speed="13.90" length="0.30" shape="4974.54,2144.56 4974.24,2144.60"/>
    </edge>
    <edge id=":1112411390_0" function="internal">
        <lane id=":1112411390_0_0" index="0" speed="13.90" length="0.28" shape="4867.98,2159.61 4867.71,2159.65"/>
    </edge>
    <edge id=":1112411392_0" function="internal">
        <lane id=":1112411392_0_0" index="0" speed="13.90" length="0.30" shape="5151.56,2118.82 5151.86,2118.79"/>
    </edge>
    <edge id=":1112411407_0" function="internal">
        <lane id=":1112411407_0_0" index="0" speed="13.90" length="4.12" shape="4995.32,2143.07 4994.43,2142.51 4993.49,2142.16 4992.49,2142.01 4991.44,2142.07"/>
    </edge>
    <edge id=":1112411407_1" function="internal">
        <lane id=":1112411407_1_0" index="0" speed="13.90" length="7.49" shape="4995.32,2143.07 4993.33,2141.25 4992.63,2139.82 4993.23,2138.79 4995.13,2138.16"/>
    </edge>
    <edge id=":1112411411_0" function="internal">
        <lane id=":1112411411_0_0" index="0" speed="13.90" length="0.10" shape="5014.69,2134.84 5014.77,2134.82"/>
    </edge>
    <edge id=":1112411427_0" function="internal">
        <lane id=":1112411427_0_0" index="0" speed="13.90" length="1.00" shape="4803.06,2175.83 4802.83,2176.00 4802.65,2176.10 4802.45,2176.15 4802.16,2176.17"/>
    </edge>
    <edge id=":1112411439_0" function="internal">
        <lane id=":1112411439_0_0" index="0" speed="13.90" length="3.63" shape="5167.98,2117.00 5169.03,2116.74 5169.57,2116.24 5169.61,2115.51 5169.14,2114.53"/>
    </edge>
    <edge id=":1112411445_0" function="internal">
        <lane id=":1112411445_0_0" index="0" speed="13.90" length="0.28" shape="4821.85,2167.04 4821.77,2167.05 4821.71,2167.07 4821.66,2167.08 4821.58,2167.11"/>
    </edge>
    <edge id=":1112411450_0" function="internal">
        <lane id=":1112411450_0_0" index="0" speed="13.90" length="0.53" shape="4808.51,2171.67 4808.36,2171.72 4808.26,2171.77 4808.17,2171.82 4808.05,2171.92"/>
    </edge>
    <edge id=":1131986105_0" function="internal">
        <lane id=":1131986105_0_0" index="0" speed="13.90" length="0.15" shape="7675.27,702.47 7675.23,702.45 7675.20,702.44 7675.17,702.43 7675.13,702.42"/>
    </edge>
    <edge id=":1131986128_0" function="internal">
        <lane id=":1131986128_0_0" index="0" speed="13.90" length="0.30" shape="7669.23,703.33 7669.16,703.62"/>
    </edge>
    <edge id=":1131986134_0" function="internal">
        <lane id=":1131986134_0_0" index="0" speed="13.90" length="0.29" shape="7685.24,706.19 7684.97,706.09"/>
    </edge>
    <edge id=":1131986163_0" function="internal">
        <lane id=":1131986163_0_0" index="0" speed="13.90" length="2.81" shape="7671.58,701.19 7670.82,701.03 7670.21,701.17 7669.76,701.59 7669.47,702.32"/>
    </edge>
    <edge id=":1132070452_0" function="internal">
        <lane id=":1132070452_0_0" index="0" speed="13.90" length="0.10" shape="7167.35,1162.51 7167.35,1162.51"/>
    </edge>
    <edge id=":1132070461_0" function="internal">
        <lane id=":1132070461_0_0" index="0" speed="13.90" length="0.30" shape="7329.08,1059.43 7328.84,1059.60"/>
    </edge>
    <edge id=":114268737_0" function="internal">
        <lane id=":114268737_0_0" index="0" speed="13.90" length="0.29" shape="13476.14,2087.91 13475.88,2088.04"/>
    </edge>
    <edge id=":1192149947_0" function="internal">
        <lane id=":1192149947_0_0" index="0" speed="13.90" length="1.27" shape="12771.25,2383.71 12770.88,2383.71 12770.62,2383.66 12770.39,2383.53 12770.11,2383.28"/>
    </edge>
    <edge id=":1201417368_0" function="internal">
        <lane id=":1201417368_0_0" index="0" speed="13.90" length="0.54" shape="6471.02,2402.46 6471.00,2402.62 6470.98,2402.72 6470.95,2402.83 6470.88,2402.97"/>
    </edge>
    <edge id=":1201417371_0" function="internal">
        <lane id=":1201417371_0_0" index="0" speed="13.90" length="0.52" shape="6471.96,2391.63 6472.00,2391.78 6472.01,2391.89 6472.01,2392.00 6472.00,2392.15"/>
    </edge>
    <edge id=":1201417375_0" function="internal">
        <lane id=":1201417375_0_0" index="0" speed="13.90" length="0.54" shape="6239.88,2475.40 6239.72,2475.40 6239.61,2475.39 6239.51,2475.37 6239.35,2475.32"/>
    </edge>
    <edge id=":1201417377_0" function="internal">
        <lane id=":1201417377_0_0" index="0" speed="13.90" length="0.29" shape="6523.56,2439.50 6523.27,2439.53"/>
    </edge>
    <edge id=":1201417379_0" function="internal">
        <lane id=":1201417379_0_0" index="0" speed="13.90" length="0.36" shape="6247.94,2475.26 6247.83,2475.28 6247.76,2475.30 6247.69,2475.30 6247.58,2475.30"/>
    </edge>
    <edge id=":1201417381_0" function="internal">
        <lane id=":1201417381_0_0" index="0" speed="13.90" length="0.10" shape="6441.22,2428.57 6441.13,2428.60"/>
    </edge>
    <edge id=":1201417383_0" function="internal">
        <lane id=":1201417383_0_0" index="0" speed="13.90" length="0.75" shape="6455.47,2424.01 6455.31,2424.16 6455.19,2424.25 6455.05,2424.32 6454.84,2424.38"/>
    </edge>
    <edge id=":1201417384_0" function="internal">
        <lane id=":1201417384_0_0" index="0" speed="13.90" length="0.55" shape="6086.35,2380.29 6086.13,2379.78"/>
    </edge>
    <edge id=":1201417384_1" function="internal">
        <lane id=":1201417384_1_0" index="0" speed="13.90" length="0.56" shape="6086.35,2380.29 6086.16,2379.77"/>
    </edge>
    <edge id=":1201417384_4" function="internal">
        <lane id=":1201417384_4_0" index="0" speed="13.90" length="4.04" shape="6086.13,2379.78 6086.01,2379.48 6086.04,2378.19 6086.24,2376.83 6086.37,2375.79"/>
    </edge>
    <edge id=":1201417384_5" function="internal">
        <lane id=":1201417384_5_0" index="0" speed="13.90" length="4.26" shape="6086.16,2379.77 6085.83,2378.90 6085.98,2377.99 6086.79,2377.56 6088.28,2377.61"/>
    </edge>
    <edge id=":1201417384_2" function="internal">
        <lane id=":1201417384_2_0" index="0" speed="13.90" length="4.52" shape="6083.77,2379.16 6084.86,2378.58 6085.66,2377.83 6086.17,2376.90 6086.37,2375.79"/>
    </edge>
    <edge id=":1201417384_3" function="internal">
        <lane id=":1201417384_3_0" index="0" speed="13.90" length="4.86" shape="6083.77,2379.16 6084.75,2378.68 6086.07,2378.03 6087.36,2377.55 6088.28,2377.61"/>
    </edge>
    <edge id=":1201417386_0" function="internal">
        <lane id=":1201417386_0_0" index="0" speed="13.90" length="0.53" shape="6230.92,2472.48 6230.77,2472.43 6230.67,2472.39 6230.58,2472.33 6230.45,2472.23"/>
    </edge>
    <edge id=":1201417396_0" function="internal">
        <lane id=":1201417396_0_0" index="0" speed="13.90" length="4.48" shape="6083.45,2373.47 6082.55,2373.93 6081.85,2374.66 6081.33,2375.67 6081.00,2376.96"/>
    </edge>
    <edge id=":1201417396_1" function="internal">
        <lane id=":1201417396_1_0" index="0" speed="13.90" length="4.36" shape="6083.45,2373.47 6082.50,2373.84 6081.30,2374.31 6080.13,2374.59 6079.30,2374.42"/>
    </edge>
    <edge id=":1201417396_2" function="internal">
        <lane id=":1201417396_2_0" index="0" speed="13.90" length="0.55" shape="6081.47,2371.94 6081.62,2372.47"/>
    </edge>
    <edge id=":1201417396_3" function="internal">
        <lane id=":1201417396_3_0" index="0" speed="13.90" length="0.55" shape="6081.47,2371.94 6081.61,2372.47"/>
    </edge>
    <edge id=":1201417396_4" function="internal">
        <lane id=":1201417396_4_0" index="0" speed="13.90" length="4.58" shape="6081.62,2372.47 6081.74,2372.86 6081.58,2374.32 6081.25,2375.85 6081.00,2376.96"/>
    </edge>
    <edge id=":1201417396_5" function="internal">
        <lane id=":1201417396_5_0" index="0" speed="13.90" length="4.27" shape="6081.61,2372.47 6081.86,2373.37 6081.63,2374.27 6080.77,2374.62 6079.30,2374.42"/>
    </edge>
    <edge id=":1201417398_0" function="internal">
        <lane id=":1201417398_0_0" index="0" speed="13.90" length="0.61" shape="6465.87,2413.96 6465.79,2414.12 6465.73,2414.23 6465.65,2414.32 6465.52,2414.45"/>
    </edge>
    <edge id=":1224872741_0" function="internal">
        <lane id=":1224872741_0_0" index="0" speed="13.90" length="0.10" shape="6845.24,1280.85 6845.24,1280.85"/>
    </edge>
    <edge id=":122721949_0" function="internal">
        <lane id=":122721949_0_0" index="0" speed="13.90" length="0.11" shape="1985.12,6.06 1985.01,6.07"/>
    </edge>
    <edge id=":122721950_0" function="internal">
        <lane id=":122721950_0_0" index="0" speed="13.90" length="0.10" shape="2027.54,3.89 2027.46,3.90"/>
    </edge>
    <edge id=":122727214_0" function="internal">
        <lane id=":122727214_0_0" index="0" speed="13.90" length="1.26" shape="3682.76,657.71 3682.60,657.38 3682.45,657.16 3682.24,657.01 3681.90,656.86"/>
    </edge>
    <edge id=":122727215_0" function="internal">
        <lane id=":122727215_0_0" index="0" speed="13.90" length="0.30" shape="3750.92,840.39 3750.82,840.11"/>
    </edge>
    <edge id=":122727216_0" function="internal">
        <lane id=":122727216_0_0" index="0" speed="13.90" length="5.01" shape="3784.23,937.05 3783.61,935.82 3782.74,935.10 3781.64,934.86 3780.29,935.13"/>
    </edge>
    <edge id=":122727216_1" function="internal">
        <lane id=":122727216_1_0" index="0" speed="13.90" length="6.20" shape="3784.23,937.05 3782.22,931.18"/>
    </edge>
    <edge id=":122727218_0" function="internal">
        <lane id=":122727218_0_0" index="0" speed="13.90" length="6.25" shape="3867.50,1192.38 3865.52,1186.45"/>
    </edge>
    <edge id=":122727218_1" function="internal">
        <lane id=":122727218_1_0" index="0" speed="13.90" length="1.55" shape="3869.48,1188.46 3868.09,1188.70 3867.95,1188.66"/>
    </edge>
    <edge id=":122727218_2" function="internal">
        <lane id=":122727218_2_0" index="0" speed="13.90" length="3.52" shape="3867.95,1188.66 3866.97,1188.44 3866.11,1187.69 3865.52,1186.45"/>
    </edge>
    <edge id=":122727219_0" function="internal">
        <lane id=":122727219_0_0" index="0" speed="13.90" length="0.30" shape="3947.25,1412.49 3947.16,1412.21"/>
    </edge>
    <edge id=":122727220_0" function="internal">
        <lane id=":122727220_0_0" index="0" speed="13.90" length="0.10" shape="4044.30,1701.83 4044.27,1701.74"/>
    </edge>
    <edge id=":122728026_0" function="internal">
        <lane id=":122728026_0_0" index="0" speed="13.90" length="0.27" shape="4119.03,1582.30 4118.89,1582.07"/>
    </edge>
    <edge id=":122729377_0" function="internal">
        <lane id=":122729377_0_0" index="0" speed="13.90" length="0.20" shape="3216.50,697.67 3216.44,697.68 3216.39,697.69 3216.35,697.70 3216.29,697.71"/>
    </edge>
    <edge id=":122730498_0" function="internal">
        <lane id=":122730498_0_0" index="0" speed="13.90" length="0.26" shape="4162.10,1645.57 4161.92,1645.38"/>
    </edge>
    <edge id=":122730503_0" function="internal">
        <lane id=":122730503_0_0" index="0" speed="13.90" length="3.36" shape="4220.52,1655.37 4217.34,1656.46"/>
    </edge>
    <edge id=":122730503_1" function="internal">
        <lane id=":122730503_1_0" index="0" speed="13.90" length="3.31" shape="4220.52,1655.37 4219.59,1655.68 4218.94,1655.86 4218.27,1655.98 4217.30,1656.10"/>
    </edge>
    <edge id=":122731183_0" function="internal">
        <lane id=":122731183_0_0" index="0" speed="13.90" length="0.30" shape="4058.81,1696.34 4058.91,1696.62"/>
    </edge>
    <edge id=":122732708_0" function="internal">
        <lane id=":122732708_0_0" index="0" speed="13.90" length="5.00" shape="4049.87,1718.83 4049.26,1717.61 4048.40,1716.87 4047.30,1716.63 4045.95,1716.88"/>
    </edge>
    <edge id=":122732708_1" function="internal">
        <lane id=":122732708_1_0" index="0" speed="13.90" length="6.22" shape="4049.87,1718.83 4047.91,1712.93"/>
    </edge>
    <edge id=":122732708_2" function="internal">
        <lane id=":122732708_2_0" index="0" speed="13.90" length="6.23" shape="4051.84,1714.87 4045.95,1716.88"/>
    </edge>
    <edge id=":122732708_3" function="internal">
        <lane id=":122732708_3_0" index="0" speed="13.90" length="1.55" shape="4051.84,1714.87 4050.49,1715.14 4050.32,1715.10"/>
    </edge>
    <edge id=":122732708_4" function="internal">
        <lane id=":122732708_4_0" index="0" speed="13.90" length="3.47" shape="4050.32,1715.10 4049.38,1714.90 4048.52,1714.17 4047.91,1712.93"/>
    </edge>
    <edge id=":123330902_0" function="internal">
        <lane id=":123330902_0_0" index="0" speed="13.90" length="6.65" shape="6470.25,2452.30 6468.43,2458.69"/>
    </edge>
    <edge id=":123330902_1" function="internal">
        <lane id=":123330902_1_0" index="0" speed="13.90" length="6.06" shape="6470.25,2452.30 6469.66,2453.41 6468.66,2454.32 6467.26,2455.05 6465.47,2455.59"/>
    </edge>
    <edge id=":123336674_0" function="internal">
        <lane id=":123336674_0_0" index="0" speed="13.90" length="2.58" shape="6200.09,2584.50 6199.58,2584.99 6199.04,2585.20 6198.46,2585.13 6197.85,2584.78"/>
    </edge>
    <edge id=":123338879_0" function="internal">
        <lane id=":123338879_0_0" index="0" speed="13.90" length="3.47" shape="6071.76,2367.83 6070.97,2367.16 6070.41,2366.74 6069.78,2366.40 6068.85,2365.98"/>
    </edge>
    <edge id=":123338879_1" function="internal">
        <lane id=":123338879_1_0" index="0" speed="13.90" length="3.33" shape="6071.76,2367.83 6071.37,2366.40 6071.60,2365.50 6072.45,2365.15"/>
    </edge>
    <edge id=":123338879_4" function="internal">
        <lane id=":123338879_4_0" index="0" speed="13.90" length="1.49" shape="6072.45,2365.15 6073.93,2365.35"/>
    </edge>
    <edge id=":123338879_2" function="internal">
        <lane id=":123338879_2_0" index="0" speed="13.90" length="1.27" shape="6073.35,2366.21 6073.78,2365.98 6074.02,2365.77 6074.07,2365.55 6073.93,2365.35"/>
    </edge>
    <edge id=":123338879_3" function="internal">
        <lane id=":123338879_3_0" index="0" speed="13.90" length="0.80" shape="6073.35,2366.21 6072.59,2366.44"/>
    </edge>
    <edge id=":123338879_5" function="internal">
        <lane id=":123338879_5_0" index="0" speed="13.90" length="3.84" shape="6072.59,2366.44 6072.31,2366.52 6071.21,2366.58 6070.06,2366.40 6068.85,2365.98"/>
    </edge>
    <edge id=":123338880_0" function="internal">
        <lane id=":123338880_0_0" index="0" speed="13.90" length="0.89" shape="6062.53,2363.19 6062.28,2363.09 6062.11,2363.04 6061.93,2363.04 6061.67,2363.07"/>
    </edge>
    <edge id=":123338881_0" function="internal">
        <lane id=":123338881_0_0" index="0" speed="13.90" length="0.25" shape="5970.26,2378.16 5970.02,2378.21"/>
    </edge>
    <edge id=":123338882_0" function="internal">
        <lane id=":123338882_0_0" index="0" speed="13.90" length="0.66" shape="5965.16,2380.85 5965.08,2381.03 5965.02,2381.14 5964.93,2381.25 5964.79,2381.38"/>
    </edge>
    <edge id=":123339761_0" function="internal">
        <lane id=":123339761_0_0" index="0" speed="13.90" length="0.10" shape="5963.39,2406.63 5963.34,2406.59"/>
    </edge>
    <edge id=":123343221_0" function="internal">
        <lane id=":123343221_0_0" index="0" speed="13.90" length="4.18" shape="5953.26,2398.27 5952.02,2397.39 5951.01,2397.01 5950.24,2397.12 5949.71,2397.73"/>
    </edge>
    <edge id=":123343221_1" function="internal">
        <lane id=":123343221_1_0" index="0" speed="13.90" length="7.32" shape="5953.26,2398.27 5951.56,2396.92 5950.38,2396.01 5949.27,2395.02 5947.79,2393.44"/>
    </edge>
    <edge id=":123343221_2" function="internal">
        <lane id=":123343221_2_0" index="0" speed="13.90" length="5.21" shape="5952.43,2393.35 5951.38,2394.46 5950.80,2395.34 5950.35,2396.32 5949.71,2397.73"/>
    </edge>
    <edge id=":123343221_3" function="internal">
        <lane id=":123343221_3_0" index="0" speed="13.90" length="1.83" shape="5952.43,2393.35 5951.19,2394.28 5950.92,2394.35"/>
    </edge>
    <edge id=":123343221_4" function="internal">
        <lane id=":123343221_4_0" index="0" speed="13.90" length="3.52" shape="5950.92,2394.35 5950.00,2394.60 5948.87,2394.32 5947.79,2393.44"/>
    </edge>
    <edge id=":123343223_0" function="internal">
        <lane id=":123343223_0_0" index="0" speed="13.90" length="1.53" shape="5949.61,2397.93 5949.39,2398.26 5949.13,2398.52 5948.80,2398.70 5948.42,2398.81"/>
    </edge>
    <edge id=":123344642_0" function="internal">
        <lane id=":123344642_0_0" index="0" speed="13.90" length="0.29" shape="5505.39,2469.50 5505.10,2469.54"/>
    </edge>
    <edge id=":123348403_0" function="internal">
        <lane id=":123348403_0_0" index="0" speed="13.90" length="3.39" shape="6406.87,2683.41 6406.48,2684.31 6405.93,2684.76 6405.22,2684.73 6404.36,2684.24"/>
    </edge>
    <edge id=":123348703_0" function="internal">
        <lane id=":123348703_0_0" index="0" speed="13.90" length="0.29" shape="6420.88,2633.80 6420.80,2634.09"/>
    </edge>
    <edge id=":123349061_0" function="internal">
        <lane id=":123349061_0_0" index="0" speed="13.90" length="2.57" shape="6229.17,2549.71 6228.56,2549.36 6227.99,2549.29 6227.44,2549.50 6226.94,2549.99"/>
    </edge>
    <edge id=":123349256_0" function="internal">
        <lane id=":123349256_0_0" index="0" speed="13.90" length="2.00" shape="6258.82,2510.10 6258.35,2510.34 6257.88,2510.41 6257.42,2510.31 6256.96,2510.04"/>
    </edge>
    <edge id=":123349505_0" function="internal">
        <lane id=":123349505_0_0" index="0" speed="13.90" length="0.10" shape="6081.73,2434.23 6081.73,2434.23"/>
    </edge>
    <edge id=":123349507_0" function="internal">
        <lane id=":123349507_0_0" index="0" speed="13.90" length="6.22" shape="6054.41,2475.91 6049.43,2472.18"/>
    </edge>
    <edge id=":123349507_1" function="internal">
        <lane id=":123349507_1_0" index="0" speed="13.90" length="1.53" shape="6053.78,2471.57 6052.81,2472.55 6052.67,2472.61"/>
    </edge>
    <edge id=":123349507_2" function="internal">
        <lane id=":123349507_2_0" index="0" speed="13.90" length="3.49" shape="6052.67,2472.61 6051.76,2472.97 6050.63,2472.85 6049.43,2472.18"/>
    </edge>
    <edge id=":123349509_0" function="internal">
        <lane id=":123349509_0_0" index="0" speed="13.90" length="5.01" shape="6112.04,2398.95 6110.84,2398.27 6109.72,2398.15 6108.67,2398.57 6107.70,2399.55"/>
    </edge>
    <edge id=":123349509_1" function="internal">
        <lane id=":123349509_1_0" index="0" speed="13.90" length="6.25" shape="6112.04,2398.95 6107.05,2395.18"/>
    </edge>
    <edge id=":123349509_2" function="internal">
        <lane id=":123349509_2_0" index="0" speed="13.90" length="3.15" shape="6108.98,2392.50 6109.87,2393.64 6109.96,2395.20 6109.91,2395.33"/>
    </edge>
    <edge id=":123349509_3" function="internal">
        <lane id=":123349509_3_0" index="0" speed="13.90" length="2.41" shape="6108.98,2392.50 6109.50,2393.90 6109.36,2394.81"/>
    </edge>
    <edge id=":123349509_4" function="internal">
        <lane id=":123349509_4_0" index="0" speed="13.90" length="4.79" shape="6109.91,2395.33 6109.23,2397.17 6107.70,2399.55"/>
    </edge>
    <edge id=":123349509_5" function="internal">
        <lane id=":123349509_5_0" index="0" speed="13.90" length="2.41" shape="6109.36,2394.81 6108.54,2395.24 6107.05,2395.18"/>
    </edge>
    <edge id=":123351761_0" function="internal">
        <lane id=":123351761_0_0" index="0" speed="13.90" length="0.13" shape="6002.10,2371.16 6001.97,2371.18"/>
    </edge>
    <edge id=":123353612_0" function="internal">
        <lane id=":123353612_0_0" index="0" speed="13.90" length="0.54" shape="6266.56,2505.07 6266.41,2505.11 6266.31,2505.15 6266.21,2505.20 6266.07,2505.29"/>
    </edge>
    <edge id=":123359835_0" function="internal">
        <lane id=":123359835_0_0" index="0" speed="13.90" length="0.30" shape="6382.51,2475.37 6382.23,2475.45"/>
    </edge>
    <edge id=":123360114_0" function="internal">
        <lane id=":123360114_0_0" index="0" speed="13.90" length="0.27" shape="6429.61,2463.63 6429.35,2463.69"/>
    </edge>
    <edge id=":125386156_0" function="internal">
        <lane id=":125386156_0_0" index="0" speed="13.90" length="6.18" shape="7368.74,2341.61 7362.60,2342.34"/>
    </edge>
    <edge id=":125386156_1" function="internal">
        <lane id=":125386156_1_0" index="0" speed="13.90" length="1.55" shape="7365.30,2338.89 7365.26,2340.25 7365.19,2340.42"/>
    </edge>
    <edge id=":125386156_2" function="internal">
        <lane id=":125386156_2_0" index="0" speed="13.90" length="3.44" shape="7365.19,2340.42 7364.80,2341.28 7363.91,2341.98 7362.60,2342.34"/>
    </edge>
    <edge id=":125388391_0" function="internal">
        <lane id=":125388391_0_0" index="0" speed="13.90" length="2.55" shape="7436.68,1867.46 7436.00,1867.64 7435.55,1868.00 7435.31,1868.53 7435.30,1869.23"/>
    </edge>
    <edge id=":1260373746_0" function="internal">
        <lane id=":1260373746_0_0" index="0" speed="13.90" length="0.23" shape="15962.26,2104.40 15962.03,2104.44"/>
    </edge>
    <edge id=":127588852_0" function="internal">
        <lane id=":127588852_0_0" index="0" speed="13.90" length="0.25" shape="7484.34,2328.09 7484.09,2328.12"/>
    </edge>
    <edge id=":127588855_0" function="internal">
        <lane id=":127588855_0_0" index="0" speed="13.90" length="2.59" shape="7633.33,2400.02 7632.62,2400.00 7632.09,2399.76 7631.73,2399.30 7631.55,2398.61"/>
    </edge>
    <edge id=":127588858_0" function="internal">
        <lane id=":127588858_0_0" index="0" speed="13.90" length="2.58" shape="7621.77,2313.53 7621.59,2312.85 7621.24,2312.39 7620.70,2312.15 7620.00,2312.13"/>
    </edge>
    <edge id=":127638288_0" function="internal">
        <lane id=":127638288_0_0" index="0" speed="13.90" length="0.28" shape="7803.92,1297.60 7803.70,1297.43"/>
    </edge>
    <edge id=":127639607_0" function="internal">
        <lane id=":127639607_0_0" index="0" speed="13.90" length="0.25" shape="7705.31,1128.88 7705.44,1128.67"/>
    </edge>
    <edge id=":127641620_0" function="internal">
        <lane id=":127641620_0_0" index="0" speed="13.90" length="2.40" shape="7668.56,1188.76 7668.11,1188.29 7667.91,1187.78 7667.94,1187.23 7668.22,1186.64"/>
    </edge>
    <edge id=":127650566_0" function="internal">
        <lane id=":127650566_0_0" index="0" speed="13.90" length="2.69" shape="7650.07,1738.93 7650.78,1738.75 7651.26,1738.37 7651.51,1737.82 7651.52,1737.08"/>
    </edge>
    <edge id=":127652487_0" function="internal">
        <lane id=":127652487_0_0" index="0" speed="13.90" length="2.72" shape="7870.55,1625.31 7870.93,1625.96 7871.00,1626.56 7870.76,1627.11 7870.21,1627.63"/>
    </edge>
    <edge id=":1281079287_0" function="internal">
        <lane id=":1281079287_0_0" index="0" speed="13.90" length="0.10" shape="8509.17,2418.92 8509.17,2418.92"/>
    </edge>
    <edge id=":1283618030_0" function="internal">
        <lane id=":1283618030_0_0" index="0" speed="13.90" length="0.30" shape="8489.86,2399.44 8489.65,2399.22"/>
    </edge>
    <edge id=":1283628999_0" function="internal">
        <lane id=":1283628999_0_0" index="0" speed="13.90" length="0.29" shape="8532.96,2408.14 8532.76,2408.35"/>
    </edge>
    <edge id=":128684578_0" function="internal">
        <lane id=":128684578_0_0" index="0" speed="13.90" length="0.10" shape="8250.64,2329.49 8250.59,2329.54"/>
    </edge>
    <edge id=":1287222119_0" function="internal">
        <lane id=":1287222119_0_0" index="0" speed="13.90" length="0.21" shape="9616.67,2722.33 9616.46,2722.35"/>
    </edge>
    <edge id=":1287222135_0" function="internal">
        <lane id=":1287222135_0_0" index="0" speed="13.90" length="0.10" shape="9666.20,2716.66 9666.20,2716.66"/>
    </edge>
    <edge id=":1287222143_0" function="internal">
        <lane id=":1287222143_0_0" index="0" speed="13.90" length="0.10" shape="9597.00,2687.00 9597.00,2686.93"/>
    </edge>
    <edge id=":1287222159_0" function="internal">
        <lane id=":1287222159_0_0" index="0" speed="13.90" length="0.30" shape="9599.64,2711.83 9599.61,2711.53"/>
    </edge>
    <edge id=":1287222163_0" function="internal">
        <lane id=":1287222163_0_0" index="0" speed="13.90" length="0.30" shape="9595.60,2663.31 9595.59,2663.01"/>
    </edge>
    <edge id=":1287222165_0" function="internal">
        <lane id=":1287222165_0_0" index="0" speed="13.90" length="0.29" shape="9600.47,2718.79 9600.43,2718.50"/>
    </edge>
    <edge id=":1287222186_0" function="internal">
        <lane id=":1287222186_0_0" index="0" speed="13.90" length="0.30" shape="9595.88,2668.58 9595.86,2668.28"/>
    </edge>
    <edge id=":1287222198_0" function="internal">
        <lane id=":1287222198_0_0" index="0" speed="13.90" length="0.29" shape="9598.72,2703.72 9598.69,2703.43"/>
    </edge>
    <edge id=":1287222218_0" function="internal">
        <lane id=":1287222218_0_0" index="0" speed="13.90" length="0.10" shape="9591.36,2623.06 9591.36,2623.06"/>
    </edge>
    <edge id=":1287222232_0" function="internal">
        <lane id=":1287222232_0_0" index="0" speed="13.90" length="2.68" shape="9602.76,2724.50 9602.02,2724.51 9601.47,2724.28 9601.10,2723.81 9600.92,2723.09"/>
    </edge>
    <edge id=":1287222258_0" function="internal">
        <lane id=":1287222258_0_0" index="0" speed="13.90" length="0.10" shape="9595.21,2655.80 9595.20,2655.70"/>
    </edge>
    <edge id=":1287239201_0" function="internal">
        <lane id=":1287239201_0_0" index="0" speed="13.90" length="0.10" shape="9587.63,2591.37 9587.63,2591.37"/>
    </edge>
    <edge id=":1287239206_0" function="internal">
        <lane id=":1287239206_0_0" index="0" speed="13.90" length="0.10" shape="9580.45,2530.40 9580.45,2530.40"/>
    </edge>
    <edge id=":1287239240_0" function="internal">
        <lane id=":1287239240_0_0" index="0" speed="13.90" length="0.10" shape="9581.98,2543.36 9581.98,2543.36"/>
    </edge>
    <edge id=":1287239271_0" function="internal">
        <lane id=":1287239271_0_0" index="0" speed="13.90" length="0.30" shape="9583.25,2554.18 9583.22,2553.88"/>
    </edge>
    <edge id=":1287339272_0" function="internal">
        <lane id=":1287339272_0_0" index="0" speed="13.90" length="0.10" shape="9584.10,2561.44 9584.10,2561.44"/>
    </edge>
    <edge id=":1287339281_0" function="internal">
        <lane id=":1287339281_0_0" index="0" speed="13.90" length="0.10" shape="9581.03,2535.34 9581.03,2535.34"/>
    </edge>
    <edge id=":128874949_0" function="internal">
        <lane id=":128874949_0_0" index="0" speed="13.90" length="2.55" shape="12661.96,2384.83 12661.27,2384.81 12660.74,2384.57 12660.38,2384.12 12660.20,2383.45"/>
    </edge>
    <edge id=":128874960_0" function="internal">
        <lane id=":128874960_0_0" index="0" speed="13.90" length="0.29" shape="12567.49,2244.44 12567.20,2244.47"/>
    </edge>