<?xml version="1.0" encoding="UTF-8"?>

<!-- generated on 04/21/18 20:32:12 by SUMO netconvert Version 0.32.0
<?xml version="1.0" encoding="UTF-8"?>

<configuration xmlns:xsi="http://www.w3.org/2001/XMLSchema-instance" xsi:noNamespaceSchemaLocation="http://sumo.dlr.de/xsd/netconvertConfiguration.xsd">

    <input>
        <node-files value="melbourne_a_1000.nod.xml"/>
        <edge-files value="melbourne_a_1000.edg.xml"/>
    </input>

    <output>
        <output-file value="melbourne_a_1000.net.xml"/>
    </output>

    <projection>
        <proj.utm value="true"/>
    </projection>

</configuration>
-->

<net version="0.27" xmlns:xsi="http://www.w3.org/2001/XMLSchema-instance" xsi:noNamespaceSchemaLocation="http://sumo.dlr.de/xsd/net_file.xsd">

    <location netOffset="-311510.21,4188129.46" convBoundary="0.00,0.00,18996.77,3753.18" origBoundary="144.858764,-37.821800,145.074681,-37.788690" projParameter="+proj=utm +zone=55 +ellps=WGS84 +datum=WGS84 +units=m +no_defs"/>

    <edge id=":103116481_0" function="internal">
        <lane id=":103116481_0_0" index="0" speed="13.90" length="0.10" shape="8574.22,983.44 8574.22,983.44"/>
    </edge>
    <edge id=":1040577862_0" function="internal">
        <lane id=":1040577862_0_0" index="0" speed="13.90" length="0.10" shape="3557.24,324.60 3557.24,324.60"/>
    </edge>
    <edge id=":1060265093_0" function="internal">
        <lane id=":1060265093_0_0" index="0" speed="13.90" length="0.30" shape="5049.10,1634.16 5048.80,1634.20"/>
    </edge>
    <edge id=":1080149303_0" function="internal">
        <lane id=":1080149303_0_0" index="0" speed="13.90" length="0.13" shape="3645.37,871.01 3645.32,870.88"/>
    </edge>
    <edge id=":1093410310_0" function="internal">
        <lane id=":1093410310_0_0" index="0" speed="13.90" length="1.28" shape="12888.27,2512.58 12887.91,2512.66 12887.64,2512.67 12887.39,2512.59 12887.06,2512.42"/>
    </edge>
    <edge id=":1093410311_0" function="internal">
        <lane id=":1093410311_0_0" index="0" speed="13.90" length="2.40" shape="12892.99,2512.81 12892.68,2512.24 12892.25,2511.88 12891.72,2511.74 12891.07,2511.82"/>
    </edge>
    <edge id=":1093410312_0" function="internal">
        <lane id=":1093410312_0_0" index="0" speed="13.90" length="0.10" shape="12895.74,2520.16 12895.71,2520.06"/>
    </edge>
    <edge id=":1096243297_0" function="internal">
        <lane id=":1096243297_0_0" index="0" speed="13.90" length="0.30" shape="6196.89,3477.74 6196.59,3477.76"/>
    </edge>
    <edge id=":1096243313_0" function="internal">
        <lane id=":1096243313_0_0" index="0" speed="13.90" length="0.14" shape="6230.44,3475.47 6230.40,3475.47 6230.37,3475.48 6230.34,3475.48 6230.30,3475.48"/>
    </edge>
    <edge id=":1112411379_0" function="internal">
        <lane id=":1112411379_0_0" index="0" speed="13.90" length="0.30" shape="4913.00,2303.44 4912.70,2303.48"/>
    </edge>
    <edge id=":1112411390_0" function="internal">
        <lane id=":1112411390_0_0" index="0" speed="13.90" length="0.28" shape="4806.44,2318.49 4806.17,2318.54"/>
    </edge>
    <edge id=":1112411407_0" function="internal">
        <lane id=":1112411407_0_0" index="0" speed="13.90" length="1.28" shape="4932.59,2301.04 4932.31,2300.87 4932.02,2300.76 4931.71,2300.71 4931.38,2300.73"/>
    </edge>
    <edge id=":1112411427_0" function="internal">
        <lane id=":1112411427_0_0" index="0" speed="13.90" length="1.00" shape="4741.52,2334.71 4741.29,2334.89 4741.11,2334.99 4740.91,2335.03 4740.62,2335.05"/>
    </edge>
    <edge id=":1112411445_0" function="internal">
        <lane id=":1112411445_0_0" index="0" speed="13.90" length="0.28" shape="4760.31,2325.93 4760.23,2325.94 4760.17,2325.95 4760.12,2325.97 4760.04,2325.99"/>
    </edge>
    <edge id=":1112411450_0" function="internal">
        <lane id=":1112411450_0_0" index="0" speed="13.90" length="0.53" shape="4746.97,2330.55 4746.82,2330.61 4746.72,2330.65 4746.63,2330.71 4746.51,2330.80"/>
    </edge>
    <edge id=":111328957_0" function="internal">
        <lane id=":111328957_0_0" index="0" speed="13.90" length="0.30" shape="12689.87,3334.42 12689.66,3334.63"/>
    </edge>
    <edge id=":111328976_0" function="internal">
        <lane id=":111328976_0_0" index="0" speed="13.90" length="1.12" shape="12663.24,3360.29 12662.98,3360.49 12662.78,3360.60 12662.56,3360.65 12662.23,3360.66"/>
    </edge>
    <edge id=":111328996_0" function="internal">
        <lane id=":111328996_0_0" index="0" speed="13.90" length="3.47" shape="12605.60,3359.22 12604.58,3359.34 12603.99,3359.75 12603.83,3360.45 12604.08,3361.43"/>
    </edge>
    <edge id=":1132070442_0" function="internal">
        <lane id=":1132070442_0_0" index="0" speed="13.90" length="0.25" shape="7452.75,1122.01 7452.68,1122.00 7452.63,1121.99 7452.58,1121.99 7452.51,1121.99"/>
    </edge>
    <edge id=":1132070443_0" function="internal">
        <lane id=":1132070443_0_0" index="0" speed="13.90" length="0.28" shape="7339.59,1182.41 7339.36,1182.57"/>
    </edge>
    <edge id=":1132070445_0" function="internal">
        <lane id=":1132070445_0_0" index="0" speed="13.90" length="0.16" shape="7104.33,1327.43 7104.32,1327.47 7104.31,1327.50 7104.30,1327.53 7104.30,1327.58"/>
    </edge>
    <edge id=":1132070449_0" function="internal">
        <lane id=":1132070449_0_0" index="0" speed="13.90" length="0.51" shape="7079.81,1353.35 7079.66,1353.31 7079.55,1353.30 7079.45,1353.30 7079.30,1353.31"/>
    </edge>
    <edge id=":1132070451_0" function="internal">
        <lane id=":1132070451_0_0" index="0" speed="13.90" length="0.10" shape="7321.63,1194.75 7321.56,1194.80"/>
    </edge>
    <edge id=":1132070452_0" function="internal">
        <lane id=":1132070452_0_0" index="0" speed="13.90" length="4.03" shape="7108.13,1320.12 7107.11,1320.72 7106.47,1321.25 7106.01,1321.95 7105.54,1323.03"/>
    </edge>
    <edge id=":1132070452_1" function="internal">
        <lane id=":1132070452_1_0" index="0" speed="13.90" length="4.15" shape="7108.13,1320.12 7104.49,1322.12"/>
    </edge>
    <edge id=":1132070459_0" function="internal">
        <lane id=":1132070459_0_0" index="0" speed="13.90" length="0.10" shape="7058.39,1355.95 7058.47,1355.94"/>
    </edge>
    <edge id=":1132070461_0" function="internal">
        <lane id=":1132070461_0_0" index="0" speed="13.90" length="0.30" shape="7267.54,1218.32 7267.30,1218.49"/>
    </edge>
    <edge id=":1132070465_0" function="internal">
        <lane id=":1132070465_0_0" index="0" speed="13.90" length="0.29" shape="7271.86,1225.17 7271.61,1225.32"/>
    </edge>
    <edge id=":1132070466_0" function="internal">
        <lane id=":1132070466_0_0" index="0" speed="13.90" length="0.11" shape="7072.84,1353.80 7072.73,1353.81"/>
    </edge>
    <edge id=":1132070467_0" function="internal">
        <lane id=":1132070467_0_0" index="0" speed="13.90" length="0.16" shape="7471.70,1125.98 7471.65,1125.96 7471.62,1125.95 7471.59,1125.94 7471.54,1125.93"/>
    </edge>
    <edge id=":1132070468_0" function="internal">
        <lane id=":1132070468_0_0" index="0" speed="13.90" length="0.17" shape="7444.93,1122.15 7444.88,1122.15 7444.84,1122.16 7444.81,1122.16 7444.76,1122.17"/>
    </edge>
    <edge id=":1132070472_0" function="internal">
        <lane id=":1132070472_0_0" index="0" speed="13.90" length="0.21" shape="7411.58,1131.48 7411.52,1131.51 7411.49,1131.53 7411.45,1131.55 7411.40,1131.58"/>
    </edge>
    <edge id=":1132070474_0" function="internal">
        <lane id=":1132070474_0_0" index="0" speed="13.90" length="0.40" shape="7082.37,1354.04 7082.26,1353.98 7082.19,1353.95 7082.11,1353.92 7082.00,1353.89"/>
    </edge>
    <edge id=":1132070475_0" function="internal">
        <lane id=":1132070475_0_0" index="0" speed="13.90" length="0.12" shape="7046.48,1358.36 7046.37,1358.39"/>
    </edge>
    <edge id=":1132070479_0" function="internal">
        <lane id=":1132070479_0_0" index="0" speed="13.90" length="0.23" shape="7103.65,1332.23 7103.64,1332.30 7103.64,1332.34 7103.64,1332.39 7103.63,1332.46"/>
    </edge>
    <edge id=":1132070481_0" function="internal">
        <lane id=":1132070481_0_0" index="0" speed="13.90" length="0.29" shape="7603.35,1195.18 7603.09,1195.05"/>
    </edge>
    <edge id=":1132070484_0" function="internal">
        <lane id=":1132070484_0_0" index="0" speed="13.90" length="0.30" shape="7103.64,1336.78 7103.65,1337.08"/>
    </edge>
    <edge id=":1132070487_0" function="internal">
        <lane id=":1132070487_0_0" index="0" speed="13.90" length="0.30" shape="7377.22,1155.43 7376.98,1155.60"/>
    </edge>
    <edge id=":1132070489_0" function="internal">
        <lane id=":1132070489_0_0" index="0" speed="13.90" length="0.21" shape="7486.97,1131.67 7486.91,1131.64 7486.88,1131.62 7486.83,1131.60 7486.78,1131.58"/>
    </edge>
    <edge id=":1132070491_0" function="internal">
        <lane id=":1132070491_0_0" index="0" speed="13.90" length="0.24" shape="7105.21,1323.85 7105.18,1323.91 7105.16,1323.96 7105.15,1324.01 7105.13,1324.08"/>
    </edge>
    <edge id=":1133260588_0" function="internal">
        <lane id=":1133260588_0_0" index="0" speed="13.90" length="0.30" shape="6921.40,3739.20 6921.10,3739.24"/>
    </edge>
    <edge id=":1224872741_0" function="internal">
        <lane id=":1224872741_0_0" index="0" speed="13.90" length="0.10" shape="6783.70,1439.74 6783.70,1439.74"/>
    </edge>
    <edge id=":1224872742_0" function="internal">
        <lane id=":1224872742_0_0" index="0" speed="13.90" length="1.13" shape="7078.21,1289.61 7078.25,1289.93 7078.24,1290.17 7078.15,1290.38 7077.99,1290.67"/>
    </edge>
    <edge id=":1224872746_0" function="internal">
        <lane id=":1224872746_0_0" index="0" speed="13.90" length="0.14" shape="6872.32,1440.23 6872.20,1440.15"/>
    </edge>
    <edge id=":1224872750_0" function="internal">
        <lane id=":1224872750_0_0" index="0" speed="13.90" length="0.17" shape="6858.60,1433.94 6858.56,1433.93 6858.52,1433.91 6858.49,1433.90 6858.44,1433.88"/>
    </edge>
    <edge id=":1224872752_0" function="internal">
        <lane id=":1224872752_0_0" index="0" speed="13.90" length="0.34" shape="6866.56,1436.74 6866.47,1436.69 6866.41,1436.65 6866.35,1436.63 6866.25,1436.59"/>
    </edge>
    <edge id=":122719160_0" function="internal">
        <lane id=":122719160_0_0" index="0" speed="13.90" length="0.28" shape="2091.39,148.28 2091.11,148.31"/>
    </edge>
    <edge id=":122719658_0" function="internal">
        <lane id=":122719658_0_0" index="0" speed="13.90" length="0.30" shape="2076.14,150.07 2075.84,150.11"/>
    </edge>
    <edge id=":122721949_0" function="internal">
        <lane id=":122721949_0_0" index="0" speed="13.90" length="0.11" shape="1923.58,164.94 1923.47,164.95"/>
    </edge>
    <edge id=":122721950_0" function="internal">
        <lane id=":122721950_0_0" index="0" speed="13.90" length="0.10" shape="1966.00,162.78 1965.92,162.78"/>
    </edge>
    <edge id=":122722864_0" function="internal">
        <lane id=":122722864_0_0" index="0" speed="13.90" length="0.19" shape="2224.35,129.17 2224.17,129.19"/>
    </edge>
    <edge id=":122723720_0" function="internal">
        <lane id=":122723720_0_0" index="0" speed="13.90" length="0.10" shape="2784.72,62.54 2784.73,62.54"/>
    </edge>
    <edge id=":122723721_0" function="internal">
        <lane id=":122723721_0_0" index="0" speed="13.90" length="2.64" shape="3294.02,3.50 3293.85,2.79 3293.49,2.32 3292.95,2.08 3292.22,2.07"/>
    </edge>
    <edge id=":122725511_0" function="internal">
        <lane id=":122725511_0_0" index="0" speed="13.90" length="0.26" shape="3603.08,713.25 3603.06,712.99"/>
    </edge>
    <edge id=":122727211_0" function="internal">
        <lane id=":122727211_0_0" index="0" speed="13.90" length="0.16" shape="3607.33,760.75 3607.32,760.70 3607.31,760.67 3607.31,760.64 3607.31,760.59"/>
    </edge>
    <edge id=":122727214_0" function="internal">
        <lane id=":122727214_0_0" index="0" speed="13.90" length="0.10" shape="3620.70,815.38 3620.66,815.29"/>
    </edge>
    <edge id=":122727215_0" function="internal">
        <lane id=":122727215_0_0" index="0" speed="13.90" length="0.30" shape="3689.38,999.27 3689.28,998.99"/>
    </edge>
    <edge id=":122727216_0" function="internal">
        <lane id=":122727216_0_0" index="0" speed="13.90" length="5.01" shape="3722.69,1095.93 3722.07,1094.71 3721.20,1093.98 3720.10,1093.75 3718.75,1094.01"/>
    </edge>
    <edge id=":122727216_1" function="internal">
        <lane id=":122727216_1_0" index="0" speed="13.90" length="6.20" shape="3722.69,1095.93 3720.68,1090.06"/>
    </edge>
    <edge id=":122727218_0" function="internal">
        <lane id=":122727218_0_0" index="0" speed="13.90" length="5.00" shape="3805.96,1351.25 3805.34,1350.04 3804.47,1349.31 3803.37,1349.07 3802.02,1349.32"/>
    </edge>
    <edge id=":122727218_1" function="internal">
        <lane id=":122727218_1_0" index="0" speed="13.90" length="6.29" shape="3805.96,1351.25 3803.97,1345.29"/>
    </edge>
    <edge id=":122727220_0" function="internal">
        <lane id=":122727220_0_0" index="0" speed="13.90" length="0.10" shape="3982.76,1860.72 3982.73,1860.63"/>
    </edge>
    <edge id=":122728026_0" function="internal">
        <lane id=":122728026_0_0" index="0" speed="13.90" length="0.27" shape="4057.49,1741.19 4057.35,1740.95"/>
    </edge>
    <edge id=":122728027_0" function="internal">
        <lane id=":122728027_0_0" index="0" speed="13.90" length="0.10" shape="3990.67,1621.31 3990.76,1621.28"/>
    </edge>
    <edge id=":122728208_0" function="internal">
        <lane id=":122728208_0_0" index="0" speed="13.90" length="0.16" shape="3615.85,801.76 3615.83,801.72 3615.82,801.69 3615.81,801.66 3615.80,801.61"/>
    </edge>
    <edge id=":122730498_0" function="internal">
        <lane id=":122730498_0_0" index="0" speed="13.90" length="0.26" shape="4100.56,1804.46 4100.38,1804.27"/>
    </edge>
    <edge id=":122730503_0" function="internal">
        <lane id=":122730503_0_0" index="0" speed="13.90" length="3.36" shape="4158.98,1814.26 4155.80,1815.34"/>
    </edge>
    <edge id=":122730503_1" function="internal">
        <lane id=":122730503_1_0" index="0" speed="13.90" length="3.31" shape="4158.98,1814.26 4158.05,1814.56 4157.40,1814.74 4156.73,1814.86 4155.76,1814.99"/>
    </edge>
    <edge id=":122732708_0" function="internal">
        <lane id=":122732708_0_0" index="0" speed="13.90" length="0.30" shape="3986.87,1873.34 3986.78,1873.05"/>
    </edge>
    <edge id=":127627640_0" function="internal">
        <lane id=":127627640_0_0" index="0" speed="13.90" length="0.24" shape="7103.76,3715.31 7103.52,3715.34"/>
    </edge>
    <edge id=":127650566_0" function="internal">
        <lane id=":127650566_0_0" index="0" speed="13.90" length="2.69" shape="7588.53,1897.82 7589.24,1897.63 7589.72,1897.26 7589.97,1896.70 7589.98,1895.97"/>
    </edge>
    <edge id=":127652487_0" function="internal">
        <lane id=":127652487_0_0" index="0" speed="13.90" length="2.72" shape="7809.01,1784.19 7809.39,1784.84 7809.46,1785.44 7809.22,1786.00 7808.67,1786.51"/>
    </edge>
    <edge id=":127714984_0" function="internal">
        <lane id=":127714984_0_0" index="0" speed="13.90" length="0.81" shape="13347.65,2935.42 13347.76,2935.64 13347.81,2935.79 13347.82,2935.96 13347.82,2936.20"/>
    </edge>
    <edge id=":127715023_0" function="internal">
        <lane id=":127715023_0_0" index="0" speed="13.90" length="0.15" shape="13253.71,2724.78 13253.72,2724.82 13253.73,2724.85 13253.74,2724.88 13253.76,2724.92"/>
    </edge>
    <edge id=":127715393_0" function="internal">
        <lane id=":127715393_0_0" index="0" speed="13.90" length="0.40" shape="13296.47,3101.04 13296.40,3101.13 13296.35,3101.20 13296.31,3101.27 13296.25,3101.37"/>
    </edge>
    <edge id=":127715411_0" function="internal">
        <lane id=":127715411_0_0" index="0" speed="13.90" length="0.34" shape="13278.85,3136.83 13278.81,3136.92 13278.78,3136.98 13278.76,3137.05 13278.73,3137.15"/>
    </edge>
    <edge id=":127715424_0" function="internal">
        <lane id=":127715424_0_0" index="0" speed="13.90" length="0.62" shape="13266.60,3186.25 13266.56,3186.42 13266.54,3186.55 13266.55,3186.67 13266.57,3186.86"/>
    </edge>
    <edge id=":127715440_0" function="internal">
        <lane id=":127715440_0_0" index="0" speed="13.90" length="0.11" shape="13275.99,3253.12 13276.01,3253.23"/>
    </edge>
    <edge id=":127715457_0" function="internal">
        <lane id=":127715457_0_0" index="0" speed="13.90" length="0.30" shape="13292.10,3327.94 13292.12,3328.03 13292.13,3328.09 13292.13,3328.15 13292.13,3328.24"/>
    </edge>
    <edge id=":127715483_0" function="internal">
        <lane id=":127715483_0_0" index="0" speed="13.90" length="0.26" shape="13292.61,3346.90 13292.61,3346.98 13292.61,3347.03 13292.61,3347.08 13292.59,3347.16"/>
    </edge>
    <edge id=":127715497_0" function="internal">
        <lane id=":127715497_0_0" index="0" speed="13.90" length="0.17" shape="13284.27,3379.13 13284.25,3379.18 13284.23,3379.21 13284.22,3379.24 13284.19,3379.29"/>
    </edge>
    <edge id=":127715512_0" function="internal">
        <lane id=":127715512_0_0" index="0" speed="13.90" length="0.27" shape="13271.67,3403.33 13271.56,3403.57"/>
    </edge>
    <edge id=":127715526_0" function="internal">
        <lane id=":127715526_0_0" index="0" speed="13.90" length="0.14" shape="13220.93,3512.98 13220.88,3513.11"/>
    </edge>
    <edge id=":1280037243_0" function="internal">
        <lane id=":1280037243_0_0" index="0" speed="13.90" length="0.14" shape="8034.28,3421.13 8034.26,3421.17 8034.24,3421.19 8034.23,3421.22 8034.21,3421.26"/>
    </edge>
    <edge id=":1280096213_0" function="internal">
        <lane id=":1280096213_0_0" index="0" speed="13.90" length="0.30" shape="7766.91,3253.53 7766.69,3253.73"/>
    </edge>
    <edge id=":1280096273_0" function="internal">
        <lane id=":1280096273_0_0" index="0" speed="13.90" length="0.30" shape="7770.99,3249.73 7770.77,3249.93"/>
    </edge>
    <edge id=":1280096284_0" function="internal">
        <lane id=":1280096284_0_0" index="0" speed="13.90" length="2.48" shape="7783.91,3239.37 7783.35,3238.98 7782.80,3238.86 7782.25,3239.00 7781.70,3239.40"/>
    </edge>
    <edge id=":128874949_0" function="internal">
        <lane id=":128874949_0_0" index="0" speed="13.90" length="6.20" shape="12601.91,2543.55 12595.75,2544.24"/>
    </edge>
    <edge id=":128874949_1" function="internal">
        <lane id=":128874949_1_0" index="0" speed="13.90" length="5.02" shape="12601.91,2543.55 12600.55,2543.50 12599.52,2543.03 12598.82,2542.13 12598.46,2540.79"/>
    </edge>
    <edge id=":128874960_0" function="internal">
        <lane id=":128874960_0_0" index="0" speed="13.90" length="0.29" shape="12505.95,2403.32 12505.66,2403.35"/>
    </edge>
    <edge id=":128874985_0" function="internal">
        <lane id=":128874985_0_0" index="0" speed="13.90" length="0.10" shape="12520.01,2552.77 12520.01,2552.77"/>
    </edge>
    <edge id=":128882408_0" function="internal">
        <lane id=":128882408_0_0" index="0" speed="13.90" length="0.30" shape="12586.92,2452.46 12586.88,2452.17"/>
    </edge>
    <edge id=":128882422_0" function="internal">
        <lane id=":128882422_0_0" index="0" speed="13.90" length="2.53" shape="12579.91,2397.25 12579.73,2396.58 12579.37,2396.13 12578.85,2395.89 12578.16,2395.86"/>
    </edge>
    <edge id=":128882436_0" function="internal">
        <lane id=":128882436_0_0" index="0" speed="13.90" length="2.61" shape="12264.65,2428.55 12263.95,2428.71 12263.47,2429.06 12263.22,2429.59 12263.19,2430.31"/>
    </edge>
    <edge id=":128882462_0" function="internal">
        <lane id=":128882462_0_0" index="0" speed="13.90" length="0.30" shape="12589.15,2468.79 12589.12,2468.50"/>
    </edge>
    <edge id=":128882501_0" function="internal">
        <lane id=":128882501_0_0" index="0" speed="13.90" length="0.30" shape="12189.68,2509.36 12189.38,2509.39"/>
    </edge>
    <edge id=":128882514_0" function="internal">
        <lane id=":128882514_0_0" index="0" speed="13.90" length="0.30" shape="12270.56,2578.37 12270.26,2578.40"/>
    </edge>
    <edge id=":128893036_0" function="internal">
        <lane id=":128893036_0_0" index="0" speed="13.90" length="1.34" shape="12989.72,2472.33 12989.37,2472.30 12989.05,2472.33 12988.74,2472.44 12988.45,2472.62"/>
    </edge>
    <edge id=":129279518_0" function="internal">
        <lane id=":129279518_0_0" index="0" speed="13.90" length="2.57" shape="11995.57,2527.46 11994.88,2527.62 11994.42,2527.96 11994.16,2528.49 11994.12,2529.19"/>
    </edge>
    <edge id=":1292873439_0" function="internal">
        <lane id=":1292873439_0_0" index="0" speed="13.90" length="0.30" shape="7768.18,3252.34 7767.96,3252.55"/>
    </edge>
    <edge id=":1292883548_0" function="internal">
        <lane id=":1292883548_0_0" index="0" speed="13.90" length="0.51" shape="8725.11,3029.47 8724.96,3029.49 8724.86,3029.51 8724.76,3029.54 8724.62,3029.60"/>
    </edge>
    <edge id=":1292883549_0" function="internal">
        <lane id=":1292883549_0_0" index="0" speed="13.90" length="0.29" shape="8707.64,3032.17 8707.35,3032.20"/>
    </edge>
    <edge id=":1292883550_0" function="internal">
        <lane id=":1292883550_0_0" index="0" speed="13.90" length="2.58" shape="8738.36,3026.53 8738.33,3027.24 8738.08,3027.77 8737.61,3028.12 8736.92,3028.29"/>
    </edge>
    <edge id=":1292883552_0" function="internal">
        <lane id=":1292883552_0_0" index="0" speed="13.90" length="2.59" shape="8681.17,3035.18 8680.46,3035.14 8679.93,3034.88 8679.59,3034.41 8679.43,3033.72"/>
    </edge>
    <edge id=":1292883553_0" function="internal">
        <lane id=":1292883553_0_0" index="0" speed="13.90" length="0.10" shape="8691.77,3034.21 8691.71,3034.21"/>
    </edge>
    <edge id=":1292883554_0" function="internal">
        <lane id=":1292883554_0_0" index="0" speed="13.90" length="2.62" shape="8678.26,3020.20 8678.10,3019.50 8677.75,3019.03 8677.22,3018.78 8676.50,3018.75"/>
    </edge>
    <edge id=":129288570_0" function="internal">
        <lane id=":129288570_0_0" index="0" speed="13.90" length="6.20" shape="12003.76,2605.08 11997.59,2605.70"/>
    </edge>
    <edge id=":129288570_1" function="internal">
        <lane id=":129288570_1_0" index="0" speed="13.90" length="1.57" shape="12000.38,2602.28 12000.31,2603.66 12000.23,2603.83"/>
    </edge>
    <edge id=":129288570_2" function="internal">
        <lane id=":129288570_2_0" index="0" speed="13.90" length="3.45" shape="12000.23,2603.83 11999.82,2604.69 11998.91,2605.37 11997.59,2605.70"/>
    </edge>
    <edge id=":129288610_0" function="internal">
        <lane id=":129288610_0_0" index="0" speed="13.90" length="0.10" shape="11947.06,2034.14 11947.06,2034.14"/>
    </edge>
    <edge id=":129291065_0" function="internal">
        <lane id=":129291065_0_0" index="0" speed="13.90" length="0.30" shape="12010.11,2028.06 12009.81,2028.09"/>
    </edge>
    <edge id=":129291097_0" function="internal">
        <lane id=":129291097_0_0" index="0" speed="13.90" length="0.13" shape="12070.84,2022.37 12070.71,2022.39"/>
    </edge>
    <edge id=":129545518_0" function="internal">
        <lane id=":129545518_0_0" index="0" speed="13.90" length="0.15" shape="4546.92,1651.85 4546.89,1651.87 4546.86,1651.89 4546.83,1651.91 4546.79,1651.93"/>
    </edge>
    <edge id=":129545519_0" function="internal">
        <lane id=":129545519_0_0" index="0" speed="13.90" length="0.29" shape="4525.28,1661.31 4525.00,1661.41"/>
    </edge>
    <edge id=":129545520_0" function="internal">
        <lane id=":129545520_0_0" index="0" speed="13.90" length="0.16" shape="4505.33,1667.69 4505.29,1667.71 4505.25,1667.72 4505.22,1667.72 4505.18,1667.73"/>
    </edge>
    <edge id=":129545521_0" function="internal">
        <lane id=":129545521_0_0" index="0" speed="13.90" length="0.10" shape="4433.43,1697.00 4433.35,1697.01"/>
    </edge>
    <edge id=":129546481_0" function="internal">
        <lane id=":129546481_0_0" index="0" speed="13.90" length="0.28" shape="5012.51,1596.72 5012.44,1596.68 5012.38,1596.66 5012.33,1596.64 5012.25,1596.61"/>
    </edge>
    <edge id=":129546482_0" function="internal">
        <lane id=":129546482_0_0" index="0" speed="13.90" length="0.67" shape="5005.66,1594.49 5005.47,1594.43 5005.34,1594.40 5005.20,1594.40 5005.01,1594.42"/>
    </edge>
    <edge id=":129546485_0" function="internal">
        <lane id=":129546485_0_0" index="0" speed="13.90" length="0.26" shape="4574.71,1639.17 4574.63,1639.18 4574.58,1639.18 4574.53,1639.20 4574.45,1639.22"/>
    </edge>
    <edge id=":129546486_0" function="internal">
        <lane id=":129546486_0_0" index="0" speed="13.90" length="0.52" shape="4560.00,1643.18 4559.85,1643.23 4559.75,1643.26 4559.66,1643.31 4559.53,1643.40"/>
    </edge>
    <edge id=":129554688_0" function="internal">
        <lane id=":129554688_0_0" index="0" speed="13.90" length="0.26" shape="6824.96,1388.44 6824.88,1388.46 6824.83,1388.46 6824.77,1388.47 6824.70,1388.47"/>
    </edge>
    <edge id=":129554689_0" function="internal">
        <lane id=":129554689_0_0" index="0" speed="13.90" length="0.22" shape="6864.96,1375.38 6864.75,1375.44"/>
    </edge>
    <edge id=":129554690_0" function="internal">
        <lane id=":129554690_0_0" index="0" speed="13.90" length="0.10" shape="6905.88,1365.11 6905.82,1365.13"/>
    </edge>
    <edge id=":129554693_0" function="internal">
        <lane id=":129554693_0_0" index="0" speed="13.90" length="0.32" shape="7038.73,1312.20 7038.67,1312.27 7038.63,1312.32 7038.58,1312.36 7038.51,1312.42"/>
    </edge>
    <edge id=":129554697_0" function="internal">
        <lane id=":129554697_0_0" index="0" speed="13.90" length="0.66" shape="7046.92,1304.22 7046.73,1304.26 7046.61,1304.31 7046.49,1304.38 7046.33,1304.49"/>
    </edge>
    <edge id=":129557020_0" function="internal">
        <lane id=":129557020_0_0" index="0" speed="13.90" length="0.27" shape="7152.00,1250.31 7151.77,1250.45"/>
    </edge>
    <edge id=":129557021_0" function="internal">
        <lane id=":129557021_0_0" index="0" speed="13.90" length="0.10" shape="7249.41,1188.52 7249.41,1188.52"/>
    </edge>
    <edge id=":129557023_0" function="internal">
        <lane id=":129557023_0_0" index="0" speed="13.90" length="0.28" shape="7352.69,1117.47 7352.47,1117.63"/>
    </edge>
    <edge id=":129557025_0" function="internal">
        <lane id=":129557025_0_0" index="0" speed="13.90" length="0.17" shape="7370.54,1104.83 7370.49,1104.86 7370.46,1104.87 7370.43,1104.89 7370.39,1104.92"/>
    </edge>
    <edge id=":129952493_0" function="internal">
        <lane id=":129952493_0_0" index="0" speed="13.90" length="2.57" shape="12115.85,1815.80 12115.17,1815.98 12114.71,1816.33 12114.47,1816.86 12114.44,1817.56"/>
    </edge>
    <edge id=":129952494_0" function="internal">
        <lane id=":129952494_0_0" index="0" speed="13.90" length="0.29" shape="12214.43,1804.89 12214.14,1804.92"/>
    </edge>
    <edge id=":129953605_0" function="internal">
        <lane id=":129953605_0_0" index="0" speed="13.90" length="2.27" shape="11890.02,1518.06 11891.40,1516.26"/>
    </edge>
    <edge id=":130038127_0" function="internal">
        <lane id=":130038127_0_0" index="0" speed="13.90" length="0.13" shape="7305.16,1917.18 7305.03,1917.16"/>
    </edge>
    <edge id=":130038128_0" function="internal">
        <lane id=":130038128_0_0" index="0" speed="13.90" length="0.11" shape="7318.09,1919.13 7317.99,1919.12"/>
    </edge>
    <edge id=":130038129_0" function="internal">
        <lane id=":130038129_0_0" index="0" speed="13.90" length="0.18" shape="7342.23,1920.24 7342.18,1920.25 7342.14,1920.25 7342.10,1920.25 7342.05,1920.25"/>
    </edge>
    <edge id=":130038130_0" function="internal">
        <lane id=":130038130_0_0" index="0" speed="13.90" length="0.10" shape="7353.77,1919.08 7353.72,1919.09"/>
    </edge>
    <edge id=":130038292_0" function="internal">
        <lane id=":130038292_0_0" index="0" speed="13.90" length="0.22" shape="7091.59,1845.53 7091.53,1845.54 7091.48,1845.54 7091.44,1845.55 7091.37,1845.56"/>
    </edge>
    <edge id=":130038293_0" function="internal">
        <lane id=":130038293_0_0" index="0" speed="13.90" length="0.19" shape="7110.29,1844.45 7110.23,1844.45 7110.19,1844.45 7110.16,1844.45 7110.10,1844.45"/>
    </edge>
    <edge id=":130038294_0" function="internal">
        <lane id=":130038294_0_0" index="0" speed="13.90" length="0.16" shape="7127.08,1845.52 7127.03,1845.52 7127.00,1845.51 7126.97,1845.51 7126.92,1845.51"/>
    </edge>
    <edge id=":130038295_0" function="internal">
        <lane id=":130038295_0_0" index="0" speed="13.90" length="0.15" shape="7141.74,1847.95 7141.70,1847.94 7141.67,1847.93 7141.64,1847.93 7141.60,1847.92"/>
    </edge>
    <edge id=":130038296_0" function="internal">
        <lane id=":130038296_0_0" index="0" speed="13.90" length="0.19" shape="7159.68,1852.67 7159.62,1852.65 7159.59,1852.64 7159.55,1852.63 7159.50,1852.61"/>
    </edge>
    <edge id=":130038330_0" function="internal">
        <lane id=":130038330_0_0" index="0" speed="13.90" length="0.12" shape="7175.66,1858.96 7175.55,1858.91"/>
    </edge>
    <edge id=":130038331_0" function="internal">
        <lane id=":130038331_0_0" index="0" speed="13.90" length="0.10" shape="7184.19,1863.10 7184.19,1863.10"/>
    </edge>
    <edge id=":130042127_0" function="internal">
        <lane id=":130042127_0_0" index="0" speed="13.90" length="0.29" shape="4305.57,2369.90 4305.28,2369.93"/>
    </edge>
    <edge id=":130043644_0" function="internal">
        <lane id=":130043644_0_0" index="0" speed="13.90" length="0.34" shape="4713.99,2336.93 4713.89,2336.94 4713.82,2336.95 4713.75,2336.96 4713.65,2336.99"/>
    </edge>
    <edge id=":130044430_0" function="internal">