<edges><edge from="1928298965" id="1928298965_313441047" to="313441047" /><edge from="313441047" id="313441047_313440696" to="313440696" /><edge from="313440696" id="313440696_313254247" to="313254247" /><edge from="313254247" id="313254247_313254248" to="313254248" /><edge from="313254248" id="313254248_313254135" to="313254135" /><edge from="313254135" id="313254135_313254237" to="313254237" /><edge from="313254237" id="313254237_313254107" to="313254107" /><edge from="313254107" id="313254107_313254089" to="313254089" /><edge from="313254089" id="313254089_313140253" to="313140253" /><edge from="313140253" id="313140253_313140004" to="313140004" /><edge from="313140004" id="313140004_313140309" to="313140309" /><edge from="313140309" id="313140309_313140381" to="313140381" /><edge from="313140381" id="313140381_313140108" to="313140108" /><edge from="313140108" id="313140108_670001388" to="670001388" /><edge from="670001388" id="670001388_313140003" to="313140003" /><edge from="313140003" id="313140003_4889662608" to="4889662608" /><edge from="4889662608" id="4889662608_313248475" to="313248475" /><edge from="313248475" id="313248475_313248462" to="313248462" /><edge from="313248462" id="313248462_21643809" to="21643809" /><edge from="21643809" id="21643809_313248453" to="313248453" /><edge from="313248453" id="313248453_462859358" to="462859358" /><edge from="462859358" id="462859358_462868395" to="462868395" /><edge from="462868395" id="462868395_311901574" to="311901574" /><edge from="311901574" id="311901574_310001311" to="310001311" /><edge from="310001311" id="310001311_3496672103" to="3496672103" /><edge from="3496672103" id="3496672103_311902363" to="311902363" /><edge from="311902363" id="311902363_310001304" to="310001304" /><edge from="310001304" id="310001304_309977100" to="309977100" /><edge from="309977100" id="309977100_2123710638" to="2123710638" /><edge from="2123710638" id="2123710638_2123710633" to="2123710633" /><edge from="2123710633" id="2123710633_370482123" to="370482123" /><edge from="370482123" id="370482123_2123710644" to="2123710644" /><edge from="2123710644" id="2123710644_370482115" to="370482115" /><edge from="370482115" id="370482115_311902564" to="311902564" /><edge from="311902564" id="311902564_309971281" to="309971281" /><edge from="309971281" id="309971281_309977202" to="309977202" /><edge from="309977202" id="309977202_309975324" to="309975324" /><edge from="309975324" id="309975324_309977265" to="309977265" /><edge from="309977265" id="309977265_1657066726" to="1657066726" /><edge from="1657066726" id="1657066726_309975092" to="309975092" /><edge from="309975092" id="309975092_309975064" to="309975064" /><edge from="309975064" id="309975064_1657066778" to="1657066778" /><edge from="1657066778" id="1657066778_5300049085" to="5300049085" /><edge from="5300049085" id="5300049085_5300049098" to="5300049098" /><edge from="5300049098" id="5300049098_5300049099" to="5300049099" /><edge from="5300049099" id="5300049099_5300049100" to="5300049100" /><edge from="5300049100" id="5300049100_5300049101" to="5300049101" /><edge from="5300049101" id="5300049101_5300049083" to="5300049083" /><edge from="5300049083" id="5300049083_5300049087" to="5300049087" /><edge from="5300049087" id="5300049087_5300049089" to="5300049089" /><edge from="5300049089" id="5300049089_5300049084" to="5300049084" /><edge from="5300049084" id="5300049084_5300049090" to="5300049090" /><edge from="5300049090" id="5300049090_5300049091" to="5300049091" /><edge from="5300049091" id="5300049091_309971280" to="309971280" /><edge from="309971280" id="309971280_3996716073" to="3996716073" /><edge from="3996716073" id="3996716073_309972963" to="309972963" /><edge from="309972963" id="309972963_309972628" to="309972628" /><edge from="309972628" id="309972628_2938993273" to="2938993273" /><edge from="2938993273" id="2938993273_309972524" to="309972524" /><edge from="309972524" id="309972524_309972464" to="309972464" /><edge from="309972464" id="309972464_309972099" to="309972099" /><edge from="309972099" id="309972099_309971848" to="309971848" /><edge from="309971848" id="309971848_309971064" to="309971064" /><edge from="309971064" id="309971064_2245788941" to="2245788941" /><edge from="2245788941" id="2245788941_309971000" to="309971000" /><edge from="309971000" id="309971000_21643772" to="21643772" /><edge from="21643772" id="21643772_4000710669" to="4000710669" /><edge from="4000710669" id="4000710669_850722885" to="850722885" /><edge from="850722885" id="850722885_309970344" to="309970344" /><edge from="309970344" id="309970344_304701852" to="304701852" /><edge from="304701852" id="304701852_2080740194" to="2080740194" /><edge from="2080740194" id="2080740194_4802879112" to="4802879112" /><edge from="4802879112" id="4802879112_304701810" to="304701810" /><edge from="304701810" id="304701810_3071691488" to="3071691488" /><edge from="3071691488" id="3071691488_309969348" to="309969348" /><edge from="309969348" id="309969348_309969259" to="309969259" /><edge from="309969259" id="309969259_304701495" to="304701495" /><edge from="304701495" id="304701495_304701503" to="304701503" /><edge from="304701503" id="304701503_3224362684" to="3224362684" /><edge from="3224362684" id="3224362684_1487228141" to="1487228141" /><edge from="1487228141" id="1487228141_1487228084" to="1487228084" /><edge from="1487228084" id="1487228084_1487228003" to="1487228003" /><edge from="1487228003" id="1487228003_1487228036" to="1487228036" /><edge from="1487228036" id="1487228036_1487228148" to="1487228148" /><edge from="1487228148" id="1487228148_1487228031" to="1487228031" /><edge from="1487228031" id="1487228031_4169720288" to="4169720288" /><edge from="4169720288" id="4169720288_1487227988" to="1487227988" /><edge from="1487227988" id="1487227988_29936553" to="29936553" /><edge from="29936553" id="29936553_4169720259" to="4169720259" /><edge from="4169720259" id="4169720259_309978787" to="309978787" /><edge from="309978787" id="309978787_1522977019" to="1522977019" /><edge from="1522977019" id="1522977019_1522839079" to="1522839079" /><edge from="1522839079" id="1522839079_1522566268" to="1522566268" /><edge from="1522566268" id="1522566268_1522834359" to="1522834359" /><edge from="1522834359" id="1522834359_1522566317" to="1522566317" /><edge from="1522566317" id="1522566317_1522834449" to="1522834449" /><edge from="1522834449" id="1522834449_1522834345" to="1522834345" /><edge from="1522834345" id="1522834345_1522834377" to="1522834377" /><edge from="1522834377" id="1522834377_1522834355" to="1522834355" /><edge from="1522834355" id="1522834355_31477188" to="31477188" /><edge from="31477188" id="31477188_31477187" to="31477187" /><edge from="31477187" id="31477187_31477186" to="31477186" /><edge from="31477186" id="31477186_2940375840" to="2940375840" /><edge from="2940375840" id="2940375840_370477432" to="370477432" /><edge from="370477432" id="370477432_214122372" to="214122372" /><edge from="214122372" id="214122372_370477489" to="370477489" /><edge from="370477489" id="370477489_31477185" to="31477185" /><edge from="31477185" id="31477185_31477184" to="31477184" /><edge from="31477184" id="31477184_2940375839" to="2940375839" /><edge from="2940375839" id="2940375839_370477495" to="370477495" /><edge from="370477495" id="370477495_214122180" to="214122180" /><edge from="214122180" id="214122180_214092481" to="214092481" /><edge from="214092481" id="214092481_541122878" to="541122878" /><edge from="541122878" id="541122878_541122879" to="541122879" /><edge from="541122879" id="541122879_541122881" to="541122881" /><edge from="541122881" id="541122881_541122882" to="541122882" /><edge from="541122882" id="541122882_541122883" to="541122883" /><edge from="541122883" id="541122883_541122884" to="541122884" /><edge from="541122884" id="541122884_541122885" to="541122885" /><edge from="541122885" id="541122885_541122845" to="541122845" /><edge from="541122845" id="541122845_541122905" to="541122905" /><edge from="541122905" id="541122905_906234098" to="906234098" /><edge from="906234098" id="906234098_906234090" to="906234090" /><edge from="906234090" id="906234090_906234099" to="906234099" /><edge from="906234099" id="906234099_906234081" to="906234081" /><edge from="906234081" id="906234081_906234088" to="906234088" /><edge from="906234088" id="906234088_906234083" to="906234083" /><edge from="906234083" id="906234083_906234091" to="906234091" /><edge from="906234091" id="906234091_906234096" to="906234096" /><edge from="906234096" id="906234096_906234093" to="906234093" /><edge from="906234093" id="906234093_128893036" to="128893036" /><edge from="128893036" id="128893036_31477178" to="31477178" /><edge from="31477178" id="31477178_31477177" to="31477177" /><edge from="31477177" id="31477177_31477176" to="31477176" /><edge from="31477176" id="31477176_4698484056" to="4698484056" /><edge from="4698484056" id="4698484056_561538868" to="561538868" /><edge from="561538868" id="561538868_31477175" to="31477175" /><edge from="31477175" id="31477175_305909758" to="305909758" /><edge from="305909758" id="305909758_31477174" to="31477174" /><edge from="31477174" id="31477174_906234095" to="906234095" /><edge from="906234095" id="906234095_3067843936" to="3067843936" /><edge from="3067843936" id="3067843936_827113739" to="827113739" /><edge from="827113739" id="827113739_128874949" to="128874949" /><edge from="128874949" id="128874949_4698523258" to="4698523258" /><edge from="4698523258" id="4698523258_128874985" to="128874985" /><edge from="128874985" id="128874985_305913666" to="305913666" /><edge from="305913666" id="305913666_151451933" to="151451933" /><edge from="151451933" id="151451933_305913661" to="305913661" /><edge from="305913661" id="305913661_305913663" to="305913663" /><edge from="305913663" id="305913663_128882514" to="128882514" /><edge from="128882514" id="128882514_1519470746" to="1519470746" /><edge from="1519470746" id="1519470746_31477172" to="31477172" /><edge from="31477172" id="31477172_1519470912" to="1519470912" /><edge from="1519470912" id="1519470912_283059741" to="283059741" /><edge from="283059741" id="283059741_129288570" to="129288570" /><edge from="129288570" id="129288570_2006021064" to="2006021064" /><edge from="2006021064" id="2006021064_5034416925" to="5034416925" /><edge from="5034416925" id="5034416925_1519470958" to="1519470958" /><edge from="1519470958" id="1519470958_4696480570" to="4696480570" /><edge from="4696480570" id="4696480570_319860962" to="319860962" /><edge from="319860962" id="319860962_4696480571" to="4696480571" /><edge from="4696480571" id="4696480571_1519471032" to="1519471032" /><edge from="1519471032" id="1519471032_1519471015" to="1519471015" /><edge from="1519471015" id="1519471015_1521014718" to="1521014718" /><edge from="1521014718" id="1521014718_31477171" to="31477171" /><edge from="31477171" id="31477171_38779052" to="38779052" /><edge from="38779052" id="38779052_248969197" to="248969197" /><edge from="248969197" id="248969197_1519470760" to="1519470760" /><edge from="1519470760" id="1519470760_227324606" to="227324606" /><edge from="227324606" id="227324606_356474935" to="356474935" /><edge from="356474935" id="356474935_227324666" to="227324666" /><edge from="227324666" id="227324666_356474868" to="356474868" /><edge from="356474868" id="356474868_356474751" to="356474751" /><edge from="356474751" id="356474751_227324345" to="227324345" /><edge from="227324345" id="227324345_356474390" to="356474390" /><edge from="356474390" id="356474390_227324534" to="227324534" /><edge from="227324534" id="227324534_356474260" to="356474260" /><edge from="356474260" id="356474260_227324467" to="227324467" /><edge from="227324467" id="227324467_384013628" to="384013628" /><edge from="384013628" id="384013628_1404216323" to="1404216323" /><edge from="1404216323" id="1404216323_1404216317" to="1404216317" /><edge from="1404216317" id="1404216317_1596911747" to="1596911747" /><edge from="1596911747" id="1596911747_384012724" to="384012724" /><edge from="384012724" id="384012724_227324361" to="227324361" /><edge from="227324361" id="227324361_332127589" to="332127589" /><edge from="332127589" id="332127589_356478170" to="356478170" /><edge from="356478170" id="356478170_227315809" to="227315809" /><edge from="227315809" id="227315809_301549282" to="301549282" /><edge from="301549282" id="301549282_222976606" to="222976606" /><edge from="222976606" id="222976606_222975227" to="222975227" /><edge from="222975227" id="222975227_301549266" to="301549266" /><edge from="301549266" id="301549266_2029614911" to="2029614911" /><edge from="2029614911" id="2029614911_2170946980" to="2170946980" /><edge from="2170946980" id="2170946980_2213981040" to="2213981040" /><edge from="2213981040" id="2213981040_301549275" to="301549275" /><edge from="301549275" id="301549275_333901615" to="333901615" /><edge from="333901615" id="333901615_233262526" to="233262526" /><edge from="233262526" id="233262526_2213981051" to="2213981051" /><edge from="2213981051" id="2213981051_2789606893" to="2789606893" /><edge from="2789606893" id="2789606893_2789606895" to="2789606895" /><edge from="2789606895" id="2789606895_233262622" to="233262622" /><edge from="233262622" id="233262622_440506788" to="440506788" /><edge from="440506788" id="440506788_440506785" to="440506785" /><edge from="440506785" id="440506785_233262607" to="233262607" /><edge from="233262607" id="233262607_368376892" to="368376892" /><edge from="368376892" id="368376892_233262588" to="233262588" /><edge from="233262588" id="233262588_338577629" to="338577629" /><edge from="338577629" id="338577629_224750279" to="224750279" /><edge from="224750279" id="224750279_224750410" to="224750410" /><edge from="224750410" id="224750410_364846732" to="364846732" /><edge from="364846732" id="364846732_2133323870" to="2133323870" /><edge from="2133323870" id="2133323870_871135414" to="871135414" /><edge from="871135414" id="871135414_361797592" to="361797592" /><edge from="361797592" id="361797592_224750210" to="224750210" /><edge from="224750210" id="224750210_4297530216" to="4297530216" /><edge from="4297530216" id="4297530216_4297530211" to="4297530211" /><edge from="4297530211" id="4297530211_30287464" to="30287464" /><edge from="30287464" id="30287464_4297530210" to="4297530210" /><edge from="4297530210" id="4297530210_652430413" to="652430413" /><edge from="652430413" id="652430413_233275077" to="233275077" /><edge from="233275077" id="233275077_4297530205" to="4297530205" /><edge from="4297530205" id="4297530205_266734181" to="266734181" /><edge from="266734181" id="266734181_248838949" to="248838949" /><edge from="248838949" id="248838949_477078642" to="477078642" /><edge from="477078642" id="477078642_2810324702" to="2810324702" /><edge from="2810324702" id="2810324702_2797967113" to="2797967113" /><edge from="2797967113" id="2797967113_477078776" to="477078776" /><edge from="477078776" id="477078776_233315285" to="233315285" /><edge from="233315285" id="233315285_767658130" to="767658130" /><edge from="767658130" id="767658130_767658129" to="767658129" /><edge from="767658129" id="767658129_767658128" to="767658128" /><edge from="767658128" id="767658128_767658367" to="767658367" /><edge from="767658367" id="767658367_767584931" to="767584931" /><edge from="767584931" id="767584931_767659043" to="767659043" /><edge from="767659043" id="767659043_767584894" to="767584894" /><edge from="767584894" id="767584894_767584876" to="767584876" /><edge from="767584876" id="767584876_2384091386" to="2384091386" /><edge from="2384091386" id="2384091386_4000075642" to="4000075642" /><edge from="4000075642" id="4000075642_767586827" to="767586827" /><edge from="767586827" id="767586827_767586829" to="767586829" /><edge from="767586829" id="767586829_767586831" to="767586831" /><edge from="767586831" id="767586831_2324975789" to="2324975789" /><edge from="2324975789" id="2324975789_1713460615" to="1713460615" /><edge from="1713460615" id="1713460615_3419354755" to="3419354755" /><edge from="3419354755" id="3419354755_3419354764" to="3419354764" /><edge from="3419354764" id="3419354764_277089929" to="277089929" /><edge from="277089929" id="277089929_26034668" to="26034668" /><edge from="26034668" id="26034668_3419354750" to="3419354750" /><edge from="3419354750" id="3419354750_595858242" to="595858242" /><edge from="595858242" id="595858242_3191033050" to="3191033050" /><edge from="3191033050" id="3191033050_589402311" to="589402311" /><edge from="589402311" id="589402311_26034670" to="26034670" /><edge from="26034670" id="26034670_3367904413" to="3367904413" /><edge from="3367904413" id="3367904413_247018098" to="247018098" /><edge from="247018098" id="247018098_247008046" to="247008046" /><edge from="247008046" id="247008046_247008062" to="247008062" /><edge from="247008062" id="247008062_247008053" to="247008053" /><edge from="247008053" id="247008053_247012072" to="247012072" /><edge from="247012072" id="247012072_247010162" to="247010162" /><edge from="247010162" id="247010162_1985557919" to="1985557919" /><edge from="1985557919" id="1985557919_1985557923" to="1985557923" /><edge from="1985557923" id="1985557923_26034669" to="26034669" /><edge from="26034669" id="26034669_3367904418" to="3367904418" /><edge from="3367904418" id="3367904418_4544002874" to="4544002874" /><edge from="4544002874" id="4544002874_245537608" to="245537608" /><edge from="245537608" id="245537608_4544002875" to="4544002875" /><edge from="4544002875" id="4544002875_245537592" to="245537592" /><edge from="245537592" id="245537592_1838361789" to="1838361789" /><edge from="1838361789" id="1838361789_2187770709" to="2187770709" /><edge from="2187770709" id="2187770709_2187770700" to="2187770700" /><edge from="2187770700" id="2187770700_2187973144" to="2187973144" /><edge from="2187973144" id="2187973144_2187973146" to="2187973146" /><edge from="2187973146" id="2187973146_2187973145" to="2187973145" /><edge from="2187973145" id="2187973145_2187770704" to="2187770704" /><edge from="2187770704" id="2187770704_2187770698" to="2187770698" /><edge from="2187770698" id="2187770698_1903722314" to="1903722314" /><edge from="1903722314" id="1903722314_2187770695" to="2187770695" /><edge from="2187770695" id="2187770695_1558806066" to="1558806066" /><edge from="1558806066" id="1558806066_1558806077" to="1558806077" /><edge from="1558806077" id="1558806077_176703213" to="176703213" /><edge from="176703213" id="176703213_176693430" to="176693430" /><edge from="176693430" id="176693430_176699680" to="176699680" /><edge from="176699680" id="176699680_714724462" to="714724462" /><edge from="714724462" id="714724462_593475869" to="593475869" /><edge from="593475869" id="593475869_593475866" to="593475866" /><edge from="593475866" id="593475866_176693380" to="176693380" /><edge from="176693380" id="176693380_176693360" to="176693360" /><edge from="176693360" id="176693360_2190483583" to="2190483583" /><edge from="2190483583" id="2190483583_4326586190" to="4326586190" /><edge from="4326586190" id="4326586190_4326586189" to="4326586189" /><edge from="4326586189" id="4326586189_2190483587" to="2190483587" /><edge from="2190483587" id="2190483587_2291073976" to="2291073976" /><edge from="2291073976" id="2291073976_4326586185" to="4326586185" /><edge from="4326586185" id="4326586185_4326586186" to="4326586186" /><edge from="4326586186" id="4326586186_2291073977" to="2291073977" /><edge from="2291073977" id="2291073977_2291073980" to="2291073980" /><edge from="2291073980" id="2291073980_2291073983" to="2291073983" /><edge from="2291073983" id="2291073983_2291073984" to="2291073984" /><edge from="2291073984" id="2291073984_2291073986" to="2291073986" /><edge from="2291073986" id="2291073986_2291073989" to="2291073989" /><edge from="2291073989" id="2291073989_2291073990" to="2291073990" /><edge from="2291073990" id="2291073990_2291073991" to="2291073991" /><edge from="2291073991" id="2291073991_2291073992" to="2291073992" /><edge from="2291073992" id="2291073992_2291073998" to="2291073998" /><edge from="2291073998" id="2291073998_2291073999" to="2291073999" /><edge from="2291073999" id="2291073999_2291074001" to="2291074001" /><edge from="2291074001" id="2291074001_2291074005" to="2291074005" /><edge from="2291074005" id="2291074005_5063584565" to="5063584565" /><edge from="5063584565" id="5063584565_1492149384" to="1492149384" /><edge from="1492149384" id="1492149384_1492145774" to="1492145774" /><edge from="1492145774" id="1492145774_4996764092" to="4996764092" /><edge from="4996764092" id="4996764092_332544861" to="332544861" /><edge from="332544861" id="332544861_332544860" to="332544860" /><edge from="332544860" id="332544860_30942264" to="30942264" /><edge from="30942264" id="30942264_3215106462" to="3215106462" /><edge from="3215106462" id="3215106462_332544859" to="332544859" /><edge from="332544859" id="332544859_332544858" to="332544858" /><edge from="332544858" id="332544858_332544866" to="332544866" /><edge from="332544866" id="332544866_3394730431" to="3394730431" /><edge from="3394730431" id="3394730431_3394730433" to="3394730433" /><edge from="3394730433" id="3394730433_3394730432" to="3394730432" /><edge from="3394730432" id="3394730432_1492131968" to="1492131968" /><edge from="1492131968" id="1492131968_1492131937" to="1492131937" /><edge from="1492131937" id="1492131937_296027713" to="296027713" /><edge from="296027713" id="296027713_1492131952" to="1492131952" /><edge from="1492131952" id="1492131952_296027706" to="296027706" /><edge from="296027706" id="296027706_305106971" to="305106971" /><edge from="305106971" id="305106971_296027680" to="296027680" /><edge from="296027680" id="296027680_1492131945" to="1492131945" /><edge from="1492131945" id="1492131945_1492131957" to="1492131957" /><edge from="1492131957" id="1492131957_1492131942" to="1492131942" /><edge from="1492131942" id="1492131942_1492131965" to="1492131965" /><edge from="1492131965" id="1492131965_1492131951" to="1492131951" /><edge from="1492131951" id="1492131951_1492131944" to="1492131944" /><edge from="1492131944" id="1492131944_1492131946" to="1492131946" /><edge from="1492131946" id="1492131946_1492131934" to="1492131934" /><edge from="1492131934" id="1492131934_296027719" to="296027719" /><edge from="296027719" id="296027719_296027698" to="296027698" /><edge from="296027698" id="296027698_26680093" to="26680093" /><edge from="26680093" id="26680093_1132070489" to="1132070489" /><edge from="1132070489" id="1132070489_1132070467" to="1132070467" /><edge from="1132070467" id="1132070467_26680091" to="26680091" /><edge from="26680091" id="26680091_92130447" to="92130447" /><edge from="92130447" id="92130447_3313036363" to="3313036363" /><edge from="3313036363" id="3313036363_26680088" to="26680088" /><edge from="26680088" id="26680088_26680087" to="26680087" /><edge from="26680087" id="26680087_1132070461" to="1132070461" /><edge from="1132070461" id="1132070461_26680084" to="26680084" /><edge from="26680084" id="26680084_1132070452" to="1132070452" /><edge from="1132070452" id="1132070452_571460260" to="571460260" /><edge from="571460260" id="571460260_306905310" to="306905310" /><edge from="306905310" id="306905310_41675607" to="41675607" /><edge from="41675607" id="41675607_129554697" to="129554697" /><edge from="129554697" id="129554697_634775152" to="634775152" /><edge from="634775152" id="634775152_129554693" to="129554693" /><edge from="129554693" id="129554693_634775151" to="634775151" /><edge from="634775151" id="634775151_41675603" to="41675603" /><edge from="41675603" id="41675603_560997640" to="560997640" /><edge from="560997640" id="560997640_41675601" to="41675601" /><edge from="41675601" id="41675601_560997636" to="560997636" /><edge from="560997636" id="560997636_129554690" to="129554690" /><edge from="129554690" id="129554690_560997615" to="560997615" /><edge from="560997615" id="560997615_129554689" to="129554689" /><edge from="129554689" id="129554689_709706163" to="709706163" /><edge from="709706163" id="709706163_709706159" to="709706159" /><edge from="709706159" id="709706159_709706157" to="709706157" /><edge from="709706157" id="709706157_129554688" to="129554688" /><edge from="129554688" id="129554688_560997614" to="560997614" /><edge from="560997614" id="560997614_310727922" to="310727922" /><edge from="310727922" id="310727922_33366754" to="33366754" /><edge from="33366754" id="33366754_560997317" to="560997317" /><edge from="560997317" id="560997317_560997597" to="560997597" /><edge from="560997597" id="560997597_41667991" to="41667991" /><edge from="41667991" id="41667991_1224872741" to="1224872741" /><edge from="1224872741" id="1224872741_304710871" to="304710871" /><edge from="304710871" id="304710871_304710870" to="304710870" /><edge from="304710870" id="304710870_3285633579" to="3285633579" /><edge from="3285633579" id="3285633579_5320613467" to="5320613467" /><edge from="5320613467" id="5320613467_5322615232" to="5322615232" /><edge from="5322615232" id="5322615232_76459258" to="76459258" /><edge from="76459258" id="76459258_4415760632" to="4415760632" /><edge from="4415760632" id="4415760632_3285633576" to="3285633576" /><edge from="3285633576" id="3285633576_2172718107" to="2172718107" /><edge from="2172718107" id="2172718107_76459296" to="76459296" /><edge from="76459296" id="76459296_3285623814" to="3285623814" /><edge from="3285623814" id="3285623814_373646060" to="373646060" /><edge from="373646060" id="373646060_373645976" to="373645976" /><edge from="373645976" id="373645976_373645935" to="373645935" /><edge from="373645935" id="373645935_3285622633" to="3285622633" /><edge from="3285622633" id="3285622633_373643824" to="373643824" /><edge from="373643824" id="373643824_2613010004" to="2613010004" /><edge from="2613010004" id="2613010004_2613010002" to="2613010002" /><edge from="2613010002" id="2613010002_373644846" to="373644846" /><edge from="373644846" id="373644846_3285622632" to="3285622632" /><edge from="3285622632" id="3285622632_583067729" to="583067729" /><edge from="583067729" id="583067729_3285622626" to="3285622626" /><edge from="3285622626" id="3285622626_75086429" to="75086429" /><edge from="75086429" id="75086429_202673222" to="202673222" /><edge from="202673222" id="202673222_202676493" to="202676493" /><edge from="202676493" id="202676493_1060265093" to="1060265093" /><edge from="1060265093" id="1060265093_4067315447" to="4067315447" /><edge from="4067315447" id="4067315447_75086428" to="75086428" /><edge from="75086428" id="75086428_2613010000" to="2613010000" /><edge from="2613010000" id="2613010000_2613009998" to="2613009998" /><edge from="2613009998" id="2613009998_4793613049" to="4793613049" /><edge from="4793613049" id="4793613049_75086426" to="75086426" /><edge from="75086426" id="75086426_295874707" to="295874707" /><edge from="295874707" id="295874707_75086425" to="75086425" /><edge from="75086425" id="75086425_3285622635" to="3285622635" /><edge from="3285622635" id="3285622635_3285622634" to="3285622634" /><edge from="3285622634" id="3285622634_202578382" to="202578382" /><edge from="202578382" id="202578382_202578380" to="202578380" /><edge from="202578380" id="202578380_295874836" to="295874836" /><edge from="295874836" id="295874836_3176128935" to="3176128935" /><edge from="3176128935" id="3176128935_202567088" to="202567088" /><edge from="202567088" id="202567088_122730503" to="122730503" /><edge from="122730503" id="122730503_5417879355" to="5417879355" /><edge from="5417879355" id="5417879355_4740947182" to="4740947182" /><edge from="4740947182" id="4740947182_4740947179" to="4740947179" /><edge from="4740947179" id="4740947179_5495352698" to="5495352698" /><edge from="5495352698" id="5495352698_4740947181" to="4740947181" /><edge from="4740947181" id="4740947181_3221150099" to="3221150099" /><edge from="3221150099" id="3221150099_583189061" to="583189061" /><edge from="583189061" id="583189061_583189179" to="583189179" /><edge from="583189179" id="583189179_583189176" to="583189176" /><edge from="583189176" id="583189176_5417879350" to="5417879350" /><edge from="5417879350" id="5417879350_583189170" to="583189170" /><edge from="583189170" id="583189170_5495352686" to="5495352686" /><edge from="5495352686" id="5495352686_583189167" to="583189167" /><edge from="583189167" id="583189167_2713476629" to="2713476629" /><edge from="2713476629" id="2713476629_583192758" to="583192758" /><edge from="583192758" id="583192758_583189165" to="583189165" /><edge from="583189165" id="583189165_583188386" to="583188386" /><edge from="583188386" id="583188386_4969348267" to="4969348267" /><edge from="4969348267" id="4969348267_122728027" to="122728027" /><edge from="122728027" id="122728027_4969348348" to="4969348348" /><edge from="4969348348" id="4969348348_4969348349" to="4969348349" /><edge from="4969348349" id="4969348349_4969348320" to="4969348320" /><edge from="4969348320" id="4969348320_4969348221" to="4969348221" /><edge from="4969348221" id="4969348221_4969348269" to="4969348269" /><edge from="4969348269" id="4969348269_4969348262" to="4969348262" /><edge from="4969348262" id="4969348262_4969348300" to="4969348300" /><edge from="4969348300" id="4969348300_827129293" to="827129293" /><edge from="827129293" id="827129293_122727218" to="122727218" /><edge from="122727218" id="122727218_2435998814" to="2435998814" /><edge from="2435998814" id="2435998814_4790887538" to="4790887538" /><edge from="4790887538" id="4790887538_4790886670" to="4790886670" /><edge from="4790886670" id="4790886670_2435998810" to="2435998810" /><edge from="2435998810" id="2435998810_250001489" to="250001489" /><edge from="250001489" id="250001489_250042828" to="250042828" /><edge from="250042828" id="250042828_250001982" to="250001982" /><edge from="250001982" id="250001982_4785576670" to="4785576670" /><edge fro